Echo file for AeroDyn 15 primary input file: ./weis_job_00_AeroDyn15.dat
------- AERODYN v15.03.* INPUT FILE ------------------------------------------------                                                                                                                                                                                                                                                                                                                                                                                                                                                                                                                                                                                                                                                                                                                                                                                                                                                                                                                                                                            
Generated with AeroElasticSE FAST driver                                                                                                                                                                                                                                                                                                                                                                                                                                                                                                                                                                                                                                                                                                                                                                                                                                                                                                                                                                                                                        
======  General Options  ============================================================================                                                                                                                                                                                                                                                                                                                                                                                                                                                                                                                                                                                                                                                                                                                                                                                                                                                                                                                                                           
 True            = Echo                
 default         = DTAero              
 1               = WakeMod             
 1               = AFAeroMod           
 0               = TwrPotent           
 0               = TwrShadow           
 Fals            = TwrAero             
 True            = FrozenWake          
 False           = CavitCheck          
 False           = Buoyancy            
 False           = CompAA              
 AeroAcousticsIn = AA_InputFile        
======  Environmental Conditions  ===================================================================                                                                                                                                                                                                                                                                                                                                                                                                                                                                                                                                                                                                                                                                                                                                                                                                                                                                                                                                                           
 default         = AirDens             
 default         = KinVisc             
 default         = SpdSound            
 default         = Patm                
 default         = Pvap                
======  Blade-Element/Momentum Theory Options  ====================================================== [used only when WakeMod=1]                                                                                                                                                                                                                                                                                                                                                                                                                                                                                                                                                                                                                                                                                                                                                                                                                                                                                                                                
 2               = SkewMod             
 1.4726215563702 = SkewModFactor       
 1.4726215563702 = SkewModFactor       
 True            = TipLoss             
 True            = HubLoss             
 True            = TanInd              
 True            = AIDrag              
 True            = TIDrag              
 default         = IndToler            
 500             = MaxIter             
======  Dynamic Blade-Element/Momentum Theory Options  ====================================================== [used only when WakeMod=1]                                                                                                                                                                                                                                                                                                                                                                                                                                                                                                                                                                                                                                                                                                                                                                                                                                                                                                                        
 2               = DBEMT_Mod           
 2.0             = tau1_const          
======  OLAF -- cOnvecting LAgrangian Filaments (Free Vortex Wake) Theory Options  ================== [used only when WakeMod=3]                                                                                                                                                                                                                                                                                                                                                                                                                                                                                                                                                                                                                                                                                                                                                                                                                                                                                                                                
 unused          = OLAFInputFileName   
======  Beddoes-Leishman Unsteady Airfoil Aerodynamics Options  ===================================== [used only when AFAeroMod=2]                                                                                                                                                                                                                                                                                                                                                                                                                                                                                                                                                                                                                                                                                                                                                                                                                                                                                                                              
 3               = UAMod               
 True            = FLookup             
======  Airfoil Information =========================================================================                                                                                                                                                                                                                                                                                                                                                                                                                                                                                                                                                                                                                                                                                                                                                                                                                                                                                                                                                           
 1               = AFTabMod            
 1               = InCol_Alfa          
 2               = InCol_Cl            
 3               = InCol_Cd            
 4               = InCol_Cm            
 0               = InCol_Cpmin         
 30              = NumAFfiles          
 Airfoils/weis_j = AFNames             
 Airfoils/weis_j =                     
 Airfoils/weis_j =                     
 Airfoils/weis_j =                     
 Airfoils/weis_j =                     
 Airfoils/weis_j =                     
 Airfoils/weis_j =                     
 Airfoils/weis_j =                     
 Airfoils/weis_j =                     
 Airfoils/weis_j =                     
 Airfoils/weis_j =                     
 Airfoils/weis_j =                     
 Airfoils/weis_j =                     
 Airfoils/weis_j =                     
 Airfoils/weis_j =                     
 Airfoils/weis_j =                     
 Airfoils/weis_j =                     
 Airfoils/weis_j =                     
 Airfoils/weis_j =                     
 Airfoils/weis_j =                     
 Airfoils/weis_j =                     
 Airfoils/weis_j =                     
 Airfoils/weis_j =                     
 Airfoils/weis_j =                     
 Airfoils/weis_j =                     
 Airfoils/weis_j =                     
 Airfoils/weis_j =                     
 Airfoils/weis_j =                     
 Airfoils/weis_j =                     
 Airfoils/weis_j =                     
======  Rotor/Blade Properties  =====================================================================                                                                                                                                                                                                                                                                                                                                                                                                                                                                                                                                                                                                                                                                                                                                                                                                                                                                                                                                                           
 True            = UseBlCm             
 weis_job_00_Aer = ADBlFile(1)         
 weis_job_00_Aer = ADBlFile(2)         
 weis_job_00_Aer = ADBlFile(3)         
======  Hub Properties ============================================================================== [used only when Buoyancy=True]                                                                                                                                                                                                                                                                                                                                                                                                                                                                                                                                                                                                                                                                                                                                                                                                                                                                                                                            
 0.0             = VolHub              
 0.0             = HubCenBx            
======  Nacelle Properties ========================================================================== [used only when Buoyancy=True]                                                                                                                                                                                                                                                                                                                                                                                                                                                                                                                                                                                                                                                                                                                                                                                                                                                                                                                            
 0.0             = VolNac              
0.0, 0.0, 0.0 NacCenB            - Position of nacelle center of buoyancy from yaw bearing in nacelle coordinates (m)
======  Tower Influence and Aerodynamics ============================================================= [used only when TwrPotent/=0, TwrShadow/=0, or TwrAero=True]                                                                                                                                                                                                                                                                                                                                                                                                                                                                                                                                                                                                                                                                                                                                                                                                                                                                                             
======  Tower Influence and Aerodynamics ============================================================= [used only when TwrPotent/=0, TwrShadow/=0, or TwrAero=True]                                                                                                                                                                                                                                                                                                                                                                                                                                                                                                                                                                                                                                                                                                                                                                                                                                                                                             
 10              = NumTwrNds           
Tower Table Header: TwrElev        TwrDiam        TwrCd          TwrTI          TwrCb                                                                                                                                                                                                                                                                                                                                                                                                                                                                                                                                                                                                                                                                                                                                                                                                                                                                                                                                                                                               
Tower Table Header: (m)              (m)           (-)            (-)           (-)                                                                                                                                                                                                                                                                                                                                                                                                                                                                                                                                                                                                                                                                                                                                                                                                                                                                                                                                                                                                 
19.3287        13.20703       0.7            0.1           0.0
38.6574        12.73958       0.7            0.1           0.0
57.98610       12.27213       0.7            0.1           0.0
77.31481       11.80469       0.7            0.1           0.0
96.64351       11.33724       0.7            0.1           0.0
115.97221      10.86979       0.7            0.1           0.0
135.30091      10.40234       0.7            0.1           0.0
154.62961      9.9349         0.7            0.1           0.0
173.95831      9.46745        0.7            0.1           0.0
193.28701      9.0            0.7            0.1           0.0
======  Outputs  ====================================================================================                                                                                                                                                                                                                                                                                                                                                                                                                                                                                                                                                                                                                                                                                                                                                                                                                                                                                                                                                           
 True            = SumPrint            
 9               = NBlOuts             
4, 7, 10, 13, 16, 18, 21, 24, 27 BlOutNd     - Blade nodes whose values will be output  (-)
 0               = NTwOuts             
0                      TwOutNd     - Tower nodes whose values will be output  (-)
OutList             - The next line(s) contains a list of output parameters.  See OutListParameters.xlsx for a listing of available output channels, (-)                                                                                                                                                                                                                                                                                                                                                                                                                                                                                                                                                                                                                                                                                                                                                                                                                                                                                                        
"RtSpeed"
"RtTSR"
END of input file (the word "END" must appear in the first 3 columns of this last OutList line)



           30  NumBlNds       - Number of blade nodes used in the analysis (-)
    BlSpn        BlCrvAC        BlSwpAC        BlCrvAng       BlTwist        BlChord          BlAFID

   0.0000    0.0000    0.0000    0.0000   -2.8047    6.6000         1   0.0000    0.0000    0.0000
   5.6897    0.0000    0.0000    0.1076    3.2675    6.7069         2   0.0000    0.0000    0.0000
  11.3793    0.0214    0.1300   -0.5503    9.3397    6.8772         3   0.0000    0.0000    0.0000
  17.0690   -0.1093   -0.3965   -2.0427   15.4119    7.2535         4   0.0000    0.0000    0.0000
  22.7586   -0.3842   -0.9762   -1.1129   21.4840    7.6298         5   0.0000    0.0000    0.0000
  28.4483   -0.3303   -0.8808    1.0587   20.5560    7.8387         6   0.0000    0.0000    0.0000
  34.1379   -0.1740   -0.6125    1.2302   15.8587    7.9575         7   0.0000    0.0000    0.0000
  39.8276   -0.0860   -0.4359    0.5677   11.1613    8.0762         8   0.0000    0.0000    0.0000
  45.5172   -0.0612   -0.3989    0.2023    8.7298    7.6717         9   0.0000    0.0000    0.0000
  51.2069   -0.0458   -0.3703    0.1467    7.0535    7.0928        10   0.0000    0.0000    0.0000
  56.8966   -0.0321   -0.3411    0.1054    5.3772    6.5138        11   0.0000    0.0000    0.0000
  62.5862   -0.0249   -0.3206    0.0654    4.4381    6.1135        12   0.0000    0.0000    0.0000
  68.2759   -0.0191   -0.3016    0.0552    3.6291    5.7447        13   0.0000    0.0000    0.0000
  73.9655   -0.0139   -0.2824    0.0427    2.8201    5.3759        14   0.0000    0.0000    0.0000
  79.6552   -0.0107   -0.2689    0.0312    2.2685    5.1166        15   0.0000    0.0000    0.0000
  85.3448   -0.0077   -0.2557    0.0279    1.7304    4.8631        16   0.0000    0.0000    0.0000
  91.0345   -0.0051   -0.2426    0.0193    1.2065    4.6139        17   0.0000    0.0000    0.0000
  96.7241   -0.0039   -0.2339    0.0119    0.9529    4.4473        18   0.0000    0.0000    0.0000
 102.4138   -0.0027   -0.2251    0.0109    0.6992    4.2807        19   0.0000    0.0000    0.0000
 108.1034   -0.0017   -0.2167    0.0085    0.4586    4.1193        20   0.0000    0.0000    0.0000
 113.7931   -0.0011   -0.2098    0.0065    0.2919    3.9877        21   0.0000    0.0000    0.0000
 119.4828   -0.0004   -0.2028    0.0058    0.1251    3.8561        22   0.0000    0.0000    0.0000
 125.1724    0.0001   -0.1960    0.0042   -0.0234    3.7266        23   0.0000    0.0000    0.0000
 130.8621    0.0004   -0.1896    0.0030   -0.1169    3.6036        24   0.0000    0.0000    0.0000
 136.5517    0.0007   -0.1831    0.0023   -0.2105    3.4806        25   0.0000    0.0000    0.0000
 142.2414    0.0008   -0.1736    0.0007   -0.2762    3.2995        26   0.0000    0.0000    0.0000
 147.9310    0.0008   -0.1583   -0.0004   -0.2904    3.0104        27   0.0000    0.0000    0.0000
 153.6207    0.0008   -0.1431   -0.0005   -0.3045    2.7213        28   0.0000    0.0000    0.0000
 159.3103    0.0007   -0.1279   -0.0005   -0.3187    2.4323        29   0.0000    0.0000    0.0000
 165.0000    0.0007   -0.1127   -0.0006   -0.3328    2.1432        30   0.0000    0.0000    0.0000



           30  NumBlNds       - Number of blade nodes used in the analysis (-)
    BlSpn        BlCrvAC        BlSwpAC        BlCrvAng       BlTwist        BlChord          BlAFID

   0.0000    0.0000    0.0000    0.0000   -2.8047    6.6000         1   0.0000    0.0000    0.0000
   5.6897    0.0000    0.0000    0.1076    3.2675    6.7069         2   0.0000    0.0000    0.0000
  11.3793    0.0214    0.1300   -0.5503    9.3397    6.8772         3   0.0000    0.0000    0.0000
  17.0690   -0.1093   -0.3965   -2.0427   15.4119    7.2535         4   0.0000    0.0000    0.0000
  22.7586   -0.3842   -0.9762   -1.1129   21.4840    7.6298         5   0.0000    0.0000    0.0000
  28.4483   -0.3303   -0.8808    1.0587   20.5560    7.8387         6   0.0000    0.0000    0.0000
  34.1379   -0.1740   -0.6125    1.2302   15.8587    7.9575         7   0.0000    0.0000    0.0000
  39.8276   -0.0860   -0.4359    0.5677   11.1613    8.0762         8   0.0000    0.0000    0.0000
  45.5172   -0.0612   -0.3989    0.2023    8.7298    7.6717         9   0.0000    0.0000    0.0000
  51.2069   -0.0458   -0.3703    0.1467    7.0535    7.0928        10   0.0000    0.0000    0.0000
  56.8966   -0.0321   -0.3411    0.1054    5.3772    6.5138        11   0.0000    0.0000    0.0000
  62.5862   -0.0249   -0.3206    0.0654    4.4381    6.1135        12   0.0000    0.0000    0.0000
  68.2759   -0.0191   -0.3016    0.0552    3.6291    5.7447        13   0.0000    0.0000    0.0000
  73.9655   -0.0139   -0.2824    0.0427    2.8201    5.3759        14   0.0000    0.0000    0.0000
  79.6552   -0.0107   -0.2689    0.0312    2.2685    5.1166        15   0.0000    0.0000    0.0000
  85.3448   -0.0077   -0.2557    0.0279    1.7304    4.8631        16   0.0000    0.0000    0.0000
  91.0345   -0.0051   -0.2426    0.0193    1.2065    4.6139        17   0.0000    0.0000    0.0000
  96.7241   -0.0039   -0.2339    0.0119    0.9529    4.4473        18   0.0000    0.0000    0.0000
 102.4138   -0.0027   -0.2251    0.0109    0.6992    4.2807        19   0.0000    0.0000    0.0000
 108.1034   -0.0017   -0.2167    0.0085    0.4586    4.1193        20   0.0000    0.0000    0.0000
 113.7931   -0.0011   -0.2098    0.0065    0.2919    3.9877        21   0.0000    0.0000    0.0000
 119.4828   -0.0004   -0.2028    0.0058    0.1251    3.8561        22   0.0000    0.0000    0.0000
 125.1724    0.0001   -0.1960    0.0042   -0.0234    3.7266        23   0.0000    0.0000    0.0000
 130.8621    0.0004   -0.1896    0.0030   -0.1169    3.6036        24   0.0000    0.0000    0.0000
 136.5517    0.0007   -0.1831    0.0023   -0.2105    3.4806        25   0.0000    0.0000    0.0000
 142.2414    0.0008   -0.1736    0.0007   -0.2762    3.2995        26   0.0000    0.0000    0.0000
 147.9310    0.0008   -0.1583   -0.0004   -0.2904    3.0104        27   0.0000    0.0000    0.0000
 153.6207    0.0008   -0.1431   -0.0005   -0.3045    2.7213        28   0.0000    0.0000    0.0000
 159.3103    0.0007   -0.1279   -0.0005   -0.3187    2.4323        29   0.0000    0.0000    0.0000
 165.0000    0.0007   -0.1127   -0.0006   -0.3328    2.1432        30   0.0000    0.0000    0.0000



           30  NumBlNds       - Number of blade nodes used in the analysis (-)
    BlSpn        BlCrvAC        BlSwpAC        BlCrvAng       BlTwist        BlChord          BlAFID

   0.0000    0.0000    0.0000    0.0000   -2.8047    6.6000         1   0.0000    0.0000    0.0000
   5.6897    0.0000    0.0000    0.1076    3.2675    6.7069         2   0.0000    0.0000    0.0000
  11.3793    0.0214    0.1300   -0.5503    9.3397    6.8772         3   0.0000    0.0000    0.0000
  17.0690   -0.1093   -0.3965   -2.0427   15.4119    7.2535         4   0.0000    0.0000    0.0000
  22.7586   -0.3842   -0.9762   -1.1129   21.4840    7.6298         5   0.0000    0.0000    0.0000
  28.4483   -0.3303   -0.8808    1.0587   20.5560    7.8387         6   0.0000    0.0000    0.0000
  34.1379   -0.1740   -0.6125    1.2302   15.8587    7.9575         7   0.0000    0.0000    0.0000
  39.8276   -0.0860   -0.4359    0.5677   11.1613    8.0762         8   0.0000    0.0000    0.0000
  45.5172   -0.0612   -0.3989    0.2023    8.7298    7.6717         9   0.0000    0.0000    0.0000
  51.2069   -0.0458   -0.3703    0.1467    7.0535    7.0928        10   0.0000    0.0000    0.0000
  56.8966   -0.0321   -0.3411    0.1054    5.3772    6.5138        11   0.0000    0.0000    0.0000
  62.5862   -0.0249   -0.3206    0.0654    4.4381    6.1135        12   0.0000    0.0000    0.0000
  68.2759   -0.0191   -0.3016    0.0552    3.6291    5.7447        13   0.0000    0.0000    0.0000
  73.9655   -0.0139   -0.2824    0.0427    2.8201    5.3759        14   0.0000    0.0000    0.0000
  79.6552   -0.0107   -0.2689    0.0312    2.2685    5.1166        15   0.0000    0.0000    0.0000
  85.3448   -0.0077   -0.2557    0.0279    1.7304    4.8631        16   0.0000    0.0000    0.0000
  91.0345   -0.0051   -0.2426    0.0193    1.2065    4.6139        17   0.0000    0.0000    0.0000
  96.7241   -0.0039   -0.2339    0.0119    0.9529    4.4473        18   0.0000    0.0000    0.0000
 102.4138   -0.0027   -0.2251    0.0109    0.6992    4.2807        19   0.0000    0.0000    0.0000
 108.1034   -0.0017   -0.2167    0.0085    0.4586    4.1193        20   0.0000    0.0000    0.0000
 113.7931   -0.0011   -0.2098    0.0065    0.2919    3.9877        21   0.0000    0.0000    0.0000
 119.4828   -0.0004   -0.2028    0.0058    0.1251    3.8561        22   0.0000    0.0000    0.0000
 125.1724    0.0001   -0.1960    0.0042   -0.0234    3.7266        23   0.0000    0.0000    0.0000
 130.8621    0.0004   -0.1896    0.0030   -0.1169    3.6036        24   0.0000    0.0000    0.0000
 136.5517    0.0007   -0.1831    0.0023   -0.2105    3.4806        25   0.0000    0.0000    0.0000
 142.2414    0.0008   -0.1736    0.0007   -0.2762    3.2995        26   0.0000    0.0000    0.0000
 147.9310    0.0008   -0.1583   -0.0004   -0.2904    3.0104        27   0.0000    0.0000    0.0000
 153.6207    0.0008   -0.1431   -0.0005   -0.3045    2.7213        28   0.0000    0.0000    0.0000
 159.3103    0.0007   -0.1279   -0.0005   -0.3187    2.4323        29   0.0000    0.0000    0.0000
 165.0000    0.0007   -0.1127   -0.0006   -0.3328    2.1432        30   0.0000    0.0000    0.0000
--
Contents of "./Airfoils/weis_job_00_AeroDyn15_Polar_00.dat":
 DEFAULT         = InterpOrd           
 1               = NonDimArea          
 0               = NumCoords           
 AF29_BL.txt     = BL_file             
 1               = NumTabs             
 8.000000        = Re                  
 0               = Ctrl                
 True            = InclUAdata          
 -29.393939      = alpha0              
 57.321589       = alpha1              
 -57.321589      = alpha2              
 1.000000        = eta_e               
 0.299251        = C_nalpha            
 Default         = T_f0                
 Default         = T_V0                
 Default         = T_p                 
 Default         = T_VL                
 Default         = b1                  
 Default         = b2                  
 Default         = b5                  
 Default         = A1                  
 Default         = A2                  
 Default         = A5                  
 0.000000        = S1                  
 0.000000        = S2                  
 0.000000        = S3                  
 0.000000        = S4                  
 0.300000        = Cn1                 
 -0.300000       = Cn2                 
 Default         = St_sh               
 0.300000        = Cd0                 
 0.000000        = Cm0                 
 0.000000        = k0                  
 0.000000        = k1                  
 0.000000        = k2                  
 0.000000        = k3                  
 0.000000        = k1_hat              
 Default         = x_cp_bar            
 Default         = UACutout            
 Default         = filtCutOff          
 200             = NumAlf              
-1.80000000000000e+02  9.46633086265214e-29  3.00000000000000e-01  3.78653234506086e-29
-1.77000000000000e+02 -5.20417042793042e-18  3.00000000000000e-01 -1.73472347597681e-17
-1.74000000000000e+02 -2.42861286636753e-17  3.00000000000000e-01  3.46944695195361e-17
-1.71000000000000e+02 -5.89805981832114e-17  3.00000000000000e-01 -2.08166817117217e-17
-1.68000000000000e+02 -5.55111512312578e-17  3.00000000000000e-01  6.07153216591882e-18
-1.65000000000000e+02  6.24500451351651e-17  3.00000000000000e-01  1.04083408558608e-17
-1.62000000000000e+02 -4.16333634234434e-17  3.00000000000000e-01  5.20417042793042e-18
-1.59000000000000e+02  8.67361737988404e-17  3.00000000000000e-01  6.93889390390723e-18
-1.56000000000000e+02  5.20417042793042e-17  3.00000000000000e-01  1.38777878078145e-17
-1.53000000000000e+02  2.77555756156289e-17  3.00000000000000e-01 -5.55111512312578e-17
-1.50000000000000e+02  0.00000000000000e+00  3.00000000000000e-01 -5.55111512312578e-17
-1.47000000000000e+02  1.66533453693773e-16  3.00000000000000e-01  2.77555756156289e-17
-1.44000000000000e+02  1.11022302462516e-16  3.00000000000000e-01  8.32667268468867e-17
-1.41000000000000e+02 -1.80411241501588e-16  3.00000000000000e-01  4.16333634234434e-17
-1.38000000000000e+02  1.52655665885959e-16  3.00000000000000e-01 -1.38777878078145e-17
-1.35000000000000e+02 -2.08166817117217e-17  3.00000000000000e-01  5.20417042793042e-18
-1.32000000000000e+02  5.98479599211998e-17  3.00000000000000e-01  6.24500451351651e-17
-1.29000000000000e+02 -5.20417042793042e-17  3.00000000000000e-01 -2.08166817117217e-17
-1.26000000000000e+02  1.73472347597681e-17  3.00000000000000e-01  1.04083408558608e-17
-1.23000000000000e+02 -1.11022302462516e-16  3.00000000000000e-01 -5.20417042793042e-17
-1.20000000000000e+02  4.16333634234434e-17  3.00000000000000e-01  4.16333634234434e-17
-1.17000000000000e+02  7.97972798949331e-17  3.00000000000000e-01 -2.42861286636753e-17
-1.14000000000000e+02 -6.24500451351651e-17  3.00000000000000e-01  5.89805981832114e-17
-1.11000000000000e+02  5.20417042793042e-18  3.00000000000000e-01  3.46944695195361e-17
-1.08000000000000e+02 -4.16333634234434e-17  3.00000000000000e-01 -6.59194920871187e-17
-1.05000000000000e+02  1.84314369322536e-17  3.00000000000000e-01  4.51028103753970e-17
-1.02000000000000e+02 -2.94902990916057e-17  3.00000000000000e-01  7.63278329429795e-17
-9.90000000000000e+01 -1.73472347597681e-17  3.00000000000000e-01 -3.46944695195361e-18
-9.60000000000000e+01  1.64798730217797e-17  3.00000000000000e-01  2.42861286636753e-17
-9.30000000000000e+01  0.00000000000000e+00  3.00000000000000e-01  0.00000000000000e+00
-9.00000000000000e+01 -2.11758236813575e-22  3.00000000000000e-01  0.00000000000000e+00
-8.70000000000000e+01  1.12757025938492e-17  3.00000000000000e-01 -2.42861286636753e-17
-8.40000000000000e+01 -1.30104260698261e-17  3.00000000000000e-01 -3.46944695195361e-18
-8.10000000000000e+01  3.64291929955129e-17  3.00000000000000e-01 -3.46944695195361e-18
-7.80000000000000e+01  3.46944695195361e-18  3.00000000000000e-01 -1.73472347597681e-17
-7.50000000000000e+01  1.12757025938492e-17  3.00000000000000e-01 -3.12250225675825e-17
-7.20000000000000e+01  4.16333634234434e-17  3.00000000000000e-01  0.00000000000000e+00
-6.90000000000000e+01  7.80625564189563e-17  3.00000000000000e-01  2.42861286636753e-17
-6.60000000000000e+01 -1.04083408558608e-17  3.00000000000000e-01 -4.16333634234434e-17
-6.30000000000000e+01 -4.51028103753970e-17  3.00000000000000e-01  3.12250225675825e-17
-6.00000000000000e+01 -2.77555756156289e-17  3.00000000000000e-01  0.00000000000000e+00
-5.70000000000000e+01  1.38777878078145e-17  3.00000000000000e-01  5.89805981832114e-17
-5.40000000000000e+01  9.71445146547012e-17  3.00000000000000e-01 -6.93889390390723e-18
-5.10000000000000e+01 -3.46944695195361e-18  3.00000000000000e-01 -1.04083408558608e-17
-4.80000000000000e+01  3.55618312575245e-17  3.00000000000000e-01 -1.73472347597681e-17
-4.50000000000000e+01  9.71445146547012e-17  3.00000000000000e-01 -6.93889390390723e-18
-4.20000000000000e+01 -6.93889390390723e-17  3.00000000000000e-01  2.60208521396521e-17
-3.90000000000000e+01  9.71445146547012e-17  3.00000000000000e-01 -1.21430643318376e-17
-3.60000000000000e+01  5.55111512312578e-17  3.00000000000000e-01  6.93889390390723e-18
-3.30000000000000e+01  5.55111512312578e-17  3.00000000000000e-01 -1.04083408558608e-17
-3.00000000000000e+01 -5.55111512312578e-17  3.00000000000000e-01  1.04083408558608e-17
-2.93939393939394e+01  0.00000000000000e+00  3.00000000000000e-01  1.30104260698261e-17
-2.87878787878788e+01  5.55111512312578e-17  3.00000000000000e-01 -1.47451495458029e-17
-2.81818181818182e+01  5.55111512312578e-17  3.00000000000000e-01  2.60208521396521e-18
-2.75757575757576e+01 -5.55111512312578e-17  3.00000000000000e-01 -1.47451495458029e-17
-2.69696969696970e+01  0.00000000000000e+00  3.00000000000000e-01  2.60208521396521e-18
-2.63636363636364e+01  1.38777878078145e-16  3.00000000000000e-01 -8.67361737988404e-19
-2.57575757575758e+01 -2.77555756156289e-17  3.00000000000000e-01 -8.67361737988404e-19
-2.51515151515151e+01 -1.11022302462516e-16  3.00000000000000e-01  3.90312782094782e-18
-2.45454545454545e+01 -6.93889390390723e-17  3.00000000000000e-01 -2.16840434497101e-18
-2.39393939393939e+01  1.38777878078145e-17  3.00000000000000e-01  9.75781955236954e-18
-2.33333333333333e+01 -1.04083408558608e-16  3.00000000000000e-01 -2.60208521396521e-18
-2.27272727272727e+01 -6.76542155630955e-17  3.00000000000000e-01  4.55364912443912e-18
-2.21212121212121e+01  5.20417042793042e-18  3.00000000000000e-01 -8.23993651088983e-18
-2.15151515151515e+01  1.73472347597681e-17  3.00000000000000e-01 -6.07153216591882e-18
-2.09090909090909e+01  1.38777878078145e-17  3.00000000000000e-01 -5.20417042793042e-18
-2.03030303030303e+01  4.16333634234434e-17  3.00000000000000e-01 -4.33680868994202e-19
-1.96969696969697e+01  1.38777878078145e-17  3.00000000000000e-01 -5.20417042793042e-18
-1.90909090909091e+01  3.12250225675825e-17  3.00000000000000e-01  0.00000000000000e+00
-1.84848484848485e+01  9.19403442267708e-17  3.00000000000000e-01  0.00000000000000e+00
-1.78787878787879e+01  4.85722573273506e-17  3.00000000000000e-01  3.46944695195361e-18
-1.72727272727273e+01  6.93889390390723e-17  3.00000000000000e-01  0.00000000000000e+00
-1.66666666666667e+01  6.93889390390723e-17  3.00000000000000e-01  8.67361737988404e-19
-1.60606060606061e+01  0.00000000000000e+00  3.00000000000000e-01 -2.16840434497101e-19
-1.54545454545455e+01 -5.55111512312578e-17  3.00000000000000e-01  8.67361737988404e-19
-1.48484848484848e+01 -2.77555756156289e-17  3.00000000000000e-01  2.60208521396521e-18
-1.42424242424242e+01  0.00000000000000e+00  3.00000000000000e-01 -2.60208521396521e-18
-1.36363636363636e+01 -5.55111512312578e-17  3.00000000000000e-01 -5.20417042793042e-18
-1.30303030303030e+01  0.00000000000000e+00  3.00000000000000e-01 -8.67361737988404e-18
-1.24242424242424e+01  2.77555756156289e-17  3.00000000000000e-01  4.33680868994202e-18
-1.18181818181818e+01  1.04083408558608e-17  3.00000000000000e-01 -3.46944695195361e-18
-1.12121212121212e+01  2.53703308361608e-17  3.00000000000000e-01 -8.67361737988404e-19
-1.06060606060606e+01 -2.42861286636753e-17  3.00000000000000e-01 -1.64798730217797e-17
-1.00000000000000e+01  6.93889390390723e-18  3.00000000000000e-01 -6.93889390390723e-18
-9.39393939393939e+00 -4.16333634234434e-17  3.00000000000000e-01  1.62630325872826e-18
-8.78787878787879e+00 -1.04083408558608e-17  3.00000000000000e-01 -1.00830802041152e-17
-8.18181818181818e+00 -6.93889390390723e-18  3.00000000000000e-01  2.16840434497101e-18
-7.57575757575758e+00  1.73472347597681e-18  3.00000000000000e-01 -3.46944695195361e-17
-6.96969696969697e+00  0.00000000000000e+00  3.00000000000000e-01 -2.16840434497101e-17
-6.36363636363636e+00  0.00000000000000e+00  3.00000000000000e-01  2.16840434497101e-17
-5.75757575757576e+00  2.81892564846231e-18  3.00000000000000e-01 -1.64798730217797e-17
-5.15151515151515e+00  6.93889390390723e-18  3.00000000000000e-01 -1.56125112837913e-17
-4.54545454545454e+00  2.77555756156289e-17  3.00000000000000e-01 -8.67361737988404e-18
-3.93939393939394e+00 -1.38777878078145e-17  3.00000000000000e-01 -2.08166817117217e-17
-3.33333333333333e+00  0.00000000000000e+00  3.00000000000000e-01  1.38777878078145e-17
-2.72727272727273e+00  0.00000000000000e+00  3.00000000000000e-01 -1.73472347597681e-18
-2.12121212121212e+00  0.00000000000000e+00  3.00000000000000e-01 -1.21430643318376e-17
-1.51515151515152e+00  4.16333634234434e-17  3.00000000000000e-01  3.46944695195361e-18
-9.09090909090912e-01 -2.77555756156289e-17  3.00000000000000e-01  2.42861286636753e-17
-3.03030303030302e-01 -2.77555756156289e-17  3.00000000000000e-01  0.00000000000000e+00
3.03030303030302e-01  5.55111512312578e-17  3.00000000000000e-01  6.93889390390723e-18
9.09090909090912e-01  1.38777878078145e-16  3.00000000000000e-01  0.00000000000000e+00
1.51515151515152e+00  1.11022302462516e-16  3.00000000000000e-01  1.04083408558608e-17
2.12121212121212e+00  1.94289029309402e-16  3.00000000000000e-01 -3.46944695195361e-17
2.72727272727273e+00  0.00000000000000e+00  3.00000000000000e-01 -3.46944695195361e-18
3.33333333333333e+00 -1.38777878078145e-17  3.00000000000000e-01 -2.77555756156289e-17
3.93939393939394e+00 -2.77555756156289e-17  3.00000000000000e-01 -4.85722573273506e-17
4.54545454545455e+00  5.55111512312578e-17  3.00000000000000e-01 -1.73472347597681e-17
5.15151515151515e+00  2.77555756156289e-17  3.00000000000000e-01 -2.08166817117217e-17
5.75757575757576e+00  0.00000000000000e+00  3.00000000000000e-01 -2.08166817117217e-17
6.36363636363637e+00  1.11022302462516e-16  3.00000000000000e-01 -2.42861286636753e-17
6.96969696969697e+00  5.55111512312578e-17  3.00000000000000e-01  3.46944695195361e-18
7.57575757575757e+00  8.32667268468867e-17  3.00000000000000e-01  1.38777878078145e-17
8.18181818181818e+00  8.32667268468867e-17  3.00000000000000e-01  2.42861286636753e-17
8.78787878787879e+00 -1.94289029309402e-16  3.00000000000000e-01 -1.38777878078145e-17
9.39393939393939e+00  2.77555756156289e-17  3.00000000000000e-01 -3.46944695195361e-17
1.00000000000000e+01 -1.66533453693773e-16  3.00000000000000e-01 -6.93889390390723e-18
1.06060606060606e+01  1.66533453693773e-16  3.00000000000000e-01 -6.93889390390723e-18
1.12121212121212e+01  1.66533453693773e-16  3.00000000000000e-01 -6.93889390390723e-18
1.18181818181818e+01 -2.22044604925031e-16  3.00000000000000e-01 -2.77555756156289e-17
1.24242424242424e+01  3.33066907387547e-16  3.00000000000000e-01 -1.38777878078145e-17
1.30303030303030e+01  2.22044604925031e-16  3.00000000000000e-01  0.00000000000000e+00
1.36363636363636e+01  1.66533453693773e-16  3.00000000000000e-01 -2.77555756156289e-17
1.42424242424242e+01 -1.66533453693773e-16  3.00000000000000e-01 -1.38777878078145e-17
1.48484848484848e+01  1.66533453693773e-16  3.00000000000000e-01 -1.38777878078145e-17
1.54545454545455e+01  5.55111512312578e-17  3.00000000000000e-01  0.00000000000000e+00
1.60606060606061e+01 -1.66533453693773e-16  3.00000000000000e-01  6.93889390390723e-18
1.66666666666667e+01 -2.22044604925031e-16  3.00000000000000e-01 -1.38777878078145e-17
1.72727272727273e+01  1.11022302462516e-16  3.00000000000000e-01 -1.38777878078145e-17
1.78787878787879e+01  1.11022302462516e-16  3.00000000000000e-01 -1.38777878078145e-17
1.84848484848485e+01  0.00000000000000e+00  3.00000000000000e-01  2.08166817117217e-17
1.90909090909091e+01  2.22044604925031e-16  3.00000000000000e-01  6.93889390390723e-18
1.96969696969697e+01  2.22044604925031e-16  3.00000000000000e-01  1.38777878078145e-17
2.03030303030303e+01  1.11022302462516e-16  3.00000000000000e-01  1.38777878078145e-17
2.09090909090909e+01 -1.11022302462516e-16  3.00000000000000e-01  0.00000000000000e+00
2.15151515151515e+01  3.33066907387547e-16  3.00000000000000e-01 -6.93889390390723e-18
2.21212121212121e+01  2.22044604925031e-16  3.00000000000000e-01 -6.93889390390723e-18
2.27272727272727e+01  1.66533453693773e-16  3.00000000000000e-01  0.00000000000000e+00
2.33333333333333e+01 -5.55111512312578e-17  3.00000000000000e-01 -1.38777878078145e-17
2.39393939393939e+01  0.00000000000000e+00  3.00000000000000e-01 -2.08166817117217e-17
2.45454545454545e+01  8.32667268468867e-17  3.00000000000000e-01  2.08166817117217e-17
2.51515151515151e+01 -1.11022302462516e-16  3.00000000000000e-01  1.38777878078145e-17
2.57575757575758e+01 -3.33066907387547e-16  3.00000000000000e-01  3.46944695195361e-18
2.63636363636364e+01 -1.38777878078145e-16  3.00000000000000e-01  1.38777878078145e-17
2.69696969696970e+01  0.00000000000000e+00  3.00000000000000e-01  6.07153216591882e-18
2.75757575757576e+01 -1.11022302462516e-16  3.00000000000000e-01 -1.73472347597681e-17
2.81818181818182e+01 -1.66533453693773e-16  3.00000000000000e-01 -1.17093834628434e-17
2.87878787878788e+01  2.22044604925031e-16  3.00000000000000e-01  3.46944695195361e-18
2.93939393939394e+01 -1.11022302462516e-16  3.00000000000000e-01  2.42861286636753e-17
3.00000000000000e+01 -2.22044604925031e-16  3.00000000000000e-01  8.67361737988404e-18
3.30000000000000e+01  5.55111512312578e-17  3.00000000000000e-01 -2.25514051876985e-17
3.60000000000000e+01 -5.55111512312578e-17  3.00000000000000e-01 -1.90819582357449e-17
3.90000000000000e+01  8.32667268468867e-17  3.00000000000000e-01  4.33680868994202e-17
4.20000000000000e+01  8.32667268468867e-17  3.00000000000000e-01 -1.38777878078145e-17
4.50000000000000e+01 -6.24500451351651e-17  3.00000000000000e-01  1.73472347597681e-17
4.80000000000000e+01 -5.03069808033274e-17  3.00000000000000e-01 -3.46944695195361e-18
5.10000000000000e+01 -1.66533453693773e-16  3.00000000000000e-01 -1.04083408558608e-17
5.40000000000000e+01 -6.93889390390723e-17  3.00000000000000e-01  4.51028103753970e-17
5.70000000000000e+01  1.24900090270330e-16  3.00000000000000e-01  4.51028103753970e-17
6.00000000000000e+01 -1.11022302462516e-16  3.00000000000000e-01  3.81639164714898e-17
6.30000000000000e+01  6.93889390390723e-17  3.00000000000000e-01  2.42861286636753e-17
6.60000000000000e+01  5.55111512312578e-17  3.00000000000000e-01 -5.20417042793042e-17
6.90000000000000e+01  4.51028103753970e-17  3.00000000000000e-01  2.77555756156289e-17
7.20000000000000e+01  3.46944695195361e-18  3.00000000000000e-01 -2.42861286636753e-17
7.50000000000000e+01  3.42607886505419e-17  3.00000000000000e-01  1.38777878078145e-17
7.80000000000000e+01 -6.59194920871187e-17  3.00000000000000e-01 -1.04083408558608e-17
8.10000000000000e+01  3.81639164714898e-17  3.00000000000000e-01  6.59194920871187e-17
8.40000000000000e+01  1.21430643318376e-17  3.00000000000000e-01  4.85722573273506e-17
8.70000000000000e+01 -2.60208521396521e-18  3.00000000000000e-01  2.42861286636753e-17
9.00000000000000e+01 -5.29395592033938e-23  3.00000000000000e-01  6.93889390390723e-18
9.30000000000000e+01  3.03576608295941e-18  3.00000000000000e-01  0.00000000000000e+00
9.60000000000000e+01 -1.47451495458029e-17  3.00000000000000e-01 -2.42861286636753e-17
9.90000000000000e+01  1.73472347597681e-17  3.00000000000000e-01  3.46944695195361e-18
1.02000000000000e+02  2.94902990916057e-17  3.00000000000000e-01 -7.63278329429795e-17
1.05000000000000e+02  5.96311194867027e-18  3.00000000000000e-01 -4.51028103753970e-17
1.08000000000000e+02  4.16333634234434e-17  3.00000000000000e-01  6.59194920871187e-17
1.11000000000000e+02  2.77555756156289e-17  3.00000000000000e-01 -3.46944695195361e-17
1.14000000000000e+02  3.46944695195361e-17  3.00000000000000e-01 -1.73472347597681e-17
1.17000000000000e+02 -7.97972798949331e-17  3.00000000000000e-01  2.42861286636753e-17
1.20000000000000e+02 -2.08166817117217e-17  3.00000000000000e-01 -4.16333634234434e-17
1.23000000000000e+02 -1.38777878078145e-17  3.00000000000000e-01  5.20417042793042e-17
1.26000000000000e+02 -1.73472347597681e-17  3.00000000000000e-01 -1.04083408558608e-17
1.29000000000000e+02 -3.46944695195361e-18  3.00000000000000e-01  6.93889390390723e-18
1.32000000000000e+02 -8.76035355368288e-17  3.00000000000000e-01 -8.84708972748172e-17
1.35000000000000e+02  2.08166817117217e-17  3.00000000000000e-01 -5.20417042793042e-18
1.38000000000000e+02  6.24500451351651e-17  3.00000000000000e-01 -6.93889390390723e-18
1.41000000000000e+02 -6.93889390390723e-17  3.00000000000000e-01 -8.32667268468867e-17
1.44000000000000e+02 -1.11022302462516e-16  3.00000000000000e-01 -5.55111512312578e-17
1.47000000000000e+02 -1.66533453693773e-16  3.00000000000000e-01 -2.77555756156289e-17
1.50000000000000e+02  0.00000000000000e+00  3.00000000000000e-01  5.55111512312578e-17
1.53000000000000e+02 -2.77555756156289e-17  3.00000000000000e-01  5.55111512312578e-17
1.56000000000000e+02 -5.20417042793042e-17  3.00000000000000e-01 -1.38777878078145e-17
1.59000000000000e+02 -8.67361737988404e-17  3.00000000000000e-01 -6.93889390390723e-18
1.62000000000000e+02  4.16333634234434e-17  3.00000000000000e-01  6.93889390390723e-18
1.65000000000000e+02 -6.24500451351651e-17  3.00000000000000e-01  3.46944695195361e-17
1.68000000000000e+02  5.55111512312578e-17  3.00000000000000e-01  4.20670442924376e-17
1.71000000000000e+02  6.24500451351651e-17  3.00000000000000e-01  0.00000000000000e+00
1.74000000000000e+02 -1.38777878078145e-17  3.00000000000000e-01  6.24500451351651e-17
1.77000000000000e+02 -3.46944695195361e-18  3.00000000000000e-01  2.08166817117217e-17
1.80000000000000e+02  9.46633086265214e-29  3.00000000000000e-01  3.78653234506086e-29
--
Contents of "./Airfoils/weis_job_00_AeroDyn15_Polar_01.dat":
 DEFAULT         = InterpOrd           
 1               = NonDimArea          
 0               = NumCoords           
 AF29_BL.txt     = BL_file             
 1               = NumTabs             
 8.000000        = Re                  
 0               = Ctrl                
 True            = InclUAdata          
 -29.393939      = alpha0              
 57.321589       = alpha1              
 -57.321589      = alpha2              
 1.000000        = eta_e               
 0.299251        = C_nalpha            
 Default         = T_f0                
 Default         = T_V0                
 Default         = T_p                 
 Default         = T_VL                
 Default         = b1                  
 Default         = b2                  
 Default         = b5                  
 Default         = A1                  
 Default         = A2                  
 Default         = A5                  
 0.000000        = S1                  
 0.000000        = S2                  
 0.000000        = S3                  
 0.000000        = S4                  
 0.300000        = Cn1                 
 -0.300000       = Cn2                 
 Default         = St_sh               
 0.300000        = Cd0                 
 0.000000        = Cm0                 
 0.000000        = k0                  
 0.000000        = k1                  
 0.000000        = k2                  
 0.000000        = k3                  
 0.000000        = k1_hat              
 Default         = x_cp_bar            
 Default         = UACutout            
 Default         = filtCutOff          
 200             = NumAlf              
-1.80000000000000e+02  9.46633086265214e-29  3.00000000000000e-01  3.78653234506086e-29
-1.77000000000000e+02 -5.20417042793042e-18  3.00000000000000e-01 -1.73472347597681e-17
-1.74000000000000e+02 -2.42861286636753e-17  3.00000000000000e-01  3.46944695195361e-17
-1.71000000000000e+02 -5.89805981832114e-17  3.00000000000000e-01 -2.08166817117217e-17
-1.68000000000000e+02 -5.55111512312578e-17  3.00000000000000e-01  6.07153216591882e-18
-1.65000000000000e+02  6.24500451351651e-17  3.00000000000000e-01  1.04083408558608e-17
-1.62000000000000e+02 -4.16333634234434e-17  3.00000000000000e-01  5.20417042793042e-18
-1.59000000000000e+02  8.67361737988404e-17  3.00000000000000e-01  6.93889390390723e-18
-1.56000000000000e+02  5.20417042793042e-17  3.00000000000000e-01  1.38777878078145e-17
-1.53000000000000e+02  2.77555756156289e-17  3.00000000000000e-01 -5.55111512312578e-17
-1.50000000000000e+02  0.00000000000000e+00  3.00000000000000e-01 -5.55111512312578e-17
-1.47000000000000e+02  1.66533453693773e-16  3.00000000000000e-01  2.77555756156289e-17
-1.44000000000000e+02  1.11022302462516e-16  3.00000000000000e-01  8.32667268468867e-17
-1.41000000000000e+02 -1.80411241501588e-16  3.00000000000000e-01  4.16333634234434e-17
-1.38000000000000e+02  1.52655665885959e-16  3.00000000000000e-01 -1.38777878078145e-17
-1.35000000000000e+02 -2.08166817117217e-17  3.00000000000000e-01  5.20417042793042e-18
-1.32000000000000e+02  5.98479599211998e-17  3.00000000000000e-01  6.24500451351651e-17
-1.29000000000000e+02 -5.20417042793042e-17  3.00000000000000e-01 -2.08166817117217e-17
-1.26000000000000e+02  1.73472347597681e-17  3.00000000000000e-01  1.04083408558608e-17
-1.23000000000000e+02 -1.11022302462516e-16  3.00000000000000e-01 -5.20417042793042e-17
-1.20000000000000e+02  4.16333634234434e-17  3.00000000000000e-01  4.16333634234434e-17
-1.17000000000000e+02  7.97972798949331e-17  3.00000000000000e-01 -2.42861286636753e-17
-1.14000000000000e+02 -6.24500451351651e-17  3.00000000000000e-01  5.89805981832114e-17
-1.11000000000000e+02  5.20417042793042e-18  3.00000000000000e-01  3.46944695195361e-17
-1.08000000000000e+02 -4.16333634234434e-17  3.00000000000000e-01 -6.59194920871187e-17
-1.05000000000000e+02  1.84314369322536e-17  3.00000000000000e-01  4.51028103753970e-17
-1.02000000000000e+02 -2.94902990916057e-17  3.00000000000000e-01  7.63278329429795e-17
-9.90000000000000e+01 -1.73472347597681e-17  3.00000000000000e-01 -3.46944695195361e-18
-9.60000000000000e+01  1.64798730217797e-17  3.00000000000000e-01  2.42861286636753e-17
-9.30000000000000e+01  0.00000000000000e+00  3.00000000000000e-01  0.00000000000000e+00
-9.00000000000000e+01 -2.11758236813575e-22  3.00000000000000e-01  0.00000000000000e+00
-8.70000000000000e+01  1.12757025938492e-17  3.00000000000000e-01 -2.42861286636753e-17
-8.40000000000000e+01 -1.30104260698261e-17  3.00000000000000e-01 -3.46944695195361e-18
-8.10000000000000e+01  3.64291929955129e-17  3.00000000000000e-01 -3.46944695195361e-18
-7.80000000000000e+01  3.46944695195361e-18  3.00000000000000e-01 -1.73472347597681e-17
-7.50000000000000e+01  1.12757025938492e-17  3.00000000000000e-01 -3.12250225675825e-17
-7.20000000000000e+01  4.16333634234434e-17  3.00000000000000e-01  0.00000000000000e+00
-6.90000000000000e+01  7.80625564189563e-17  3.00000000000000e-01  2.42861286636753e-17
-6.60000000000000e+01 -1.04083408558608e-17  3.00000000000000e-01 -4.16333634234434e-17
-6.30000000000000e+01 -4.51028103753970e-17  3.00000000000000e-01  3.12250225675825e-17
-6.00000000000000e+01 -2.77555756156289e-17  3.00000000000000e-01  0.00000000000000e+00
-5.70000000000000e+01  1.38777878078145e-17  3.00000000000000e-01  5.89805981832114e-17
-5.40000000000000e+01  9.71445146547012e-17  3.00000000000000e-01 -6.93889390390723e-18
-5.10000000000000e+01 -3.46944695195361e-18  3.00000000000000e-01 -1.04083408558608e-17
-4.80000000000000e+01  3.55618312575245e-17  3.00000000000000e-01 -1.73472347597681e-17
-4.50000000000000e+01  9.71445146547012e-17  3.00000000000000e-01 -6.93889390390723e-18
-4.20000000000000e+01 -6.93889390390723e-17  3.00000000000000e-01  2.60208521396521e-17
-3.90000000000000e+01  9.71445146547012e-17  3.00000000000000e-01 -1.21430643318376e-17
-3.60000000000000e+01  5.55111512312578e-17  3.00000000000000e-01  6.93889390390723e-18
-3.30000000000000e+01  5.55111512312578e-17  3.00000000000000e-01 -1.04083408558608e-17
-3.00000000000000e+01 -5.55111512312578e-17  3.00000000000000e-01  1.04083408558608e-17
-2.93939393939394e+01  0.00000000000000e+00  3.00000000000000e-01  1.30104260698261e-17
-2.87878787878788e+01  5.55111512312578e-17  3.00000000000000e-01 -1.47451495458029e-17
-2.81818181818182e+01  5.55111512312578e-17  3.00000000000000e-01  2.60208521396521e-18
-2.75757575757576e+01 -5.55111512312578e-17  3.00000000000000e-01 -1.47451495458029e-17
-2.69696969696970e+01  0.00000000000000e+00  3.00000000000000e-01  2.60208521396521e-18
-2.63636363636364e+01  1.38777878078145e-16  3.00000000000000e-01 -8.67361737988404e-19
-2.57575757575758e+01 -2.77555756156289e-17  3.00000000000000e-01 -8.67361737988404e-19
-2.51515151515151e+01 -1.11022302462516e-16  3.00000000000000e-01  3.90312782094782e-18
-2.45454545454545e+01 -6.93889390390723e-17  3.00000000000000e-01 -2.16840434497101e-18
-2.39393939393939e+01  1.38777878078145e-17  3.00000000000000e-01  9.75781955236954e-18
-2.33333333333333e+01 -1.04083408558608e-16  3.00000000000000e-01 -2.60208521396521e-18
-2.27272727272727e+01 -6.76542155630955e-17  3.00000000000000e-01  4.55364912443912e-18
-2.21212121212121e+01  5.20417042793042e-18  3.00000000000000e-01 -8.23993651088983e-18
-2.15151515151515e+01  1.73472347597681e-17  3.00000000000000e-01 -6.07153216591882e-18
-2.09090909090909e+01  1.38777878078145e-17  3.00000000000000e-01 -5.20417042793042e-18
-2.03030303030303e+01  4.16333634234434e-17  3.00000000000000e-01 -4.33680868994202e-19
-1.96969696969697e+01  1.38777878078145e-17  3.00000000000000e-01 -5.20417042793042e-18
-1.90909090909091e+01  3.12250225675825e-17  3.00000000000000e-01  0.00000000000000e+00
-1.84848484848485e+01  9.19403442267708e-17  3.00000000000000e-01  0.00000000000000e+00
-1.78787878787879e+01  4.85722573273506e-17  3.00000000000000e-01  3.46944695195361e-18
-1.72727272727273e+01  6.93889390390723e-17  3.00000000000000e-01  0.00000000000000e+00
-1.66666666666667e+01  6.93889390390723e-17  3.00000000000000e-01  8.67361737988404e-19
-1.60606060606061e+01  0.00000000000000e+00  3.00000000000000e-01 -2.16840434497101e-19
-1.54545454545455e+01 -5.55111512312578e-17  3.00000000000000e-01  8.67361737988404e-19
-1.48484848484848e+01 -2.77555756156289e-17  3.00000000000000e-01  2.60208521396521e-18
-1.42424242424242e+01  0.00000000000000e+00  3.00000000000000e-01 -2.60208521396521e-18
-1.36363636363636e+01 -5.55111512312578e-17  3.00000000000000e-01 -5.20417042793042e-18
-1.30303030303030e+01  0.00000000000000e+00  3.00000000000000e-01 -8.67361737988404e-18
-1.24242424242424e+01  2.77555756156289e-17  3.00000000000000e-01  4.33680868994202e-18
-1.18181818181818e+01  1.04083408558608e-17  3.00000000000000e-01 -3.46944695195361e-18
-1.12121212121212e+01  2.53703308361608e-17  3.00000000000000e-01 -8.67361737988404e-19
-1.06060606060606e+01 -2.42861286636753e-17  3.00000000000000e-01 -1.64798730217797e-17
-1.00000000000000e+01  6.93889390390723e-18  3.00000000000000e-01 -6.93889390390723e-18
-9.39393939393939e+00 -4.16333634234434e-17  3.00000000000000e-01  1.62630325872826e-18
-8.78787878787879e+00 -1.04083408558608e-17  3.00000000000000e-01 -1.00830802041152e-17
-8.18181818181818e+00 -6.93889390390723e-18  3.00000000000000e-01  2.16840434497101e-18
-7.57575757575758e+00  1.73472347597681e-18  3.00000000000000e-01 -3.46944695195361e-17
-6.96969696969697e+00  0.00000000000000e+00  3.00000000000000e-01 -2.16840434497101e-17
-6.36363636363636e+00  0.00000000000000e+00  3.00000000000000e-01  2.16840434497101e-17
-5.75757575757576e+00  2.81892564846231e-18  3.00000000000000e-01 -1.64798730217797e-17
-5.15151515151515e+00  6.93889390390723e-18  3.00000000000000e-01 -1.56125112837913e-17
-4.54545454545454e+00  2.77555756156289e-17  3.00000000000000e-01 -8.67361737988404e-18
-3.93939393939394e+00 -1.38777878078145e-17  3.00000000000000e-01 -2.08166817117217e-17
-3.33333333333333e+00  0.00000000000000e+00  3.00000000000000e-01  1.38777878078145e-17
-2.72727272727273e+00  0.00000000000000e+00  3.00000000000000e-01 -1.73472347597681e-18
-2.12121212121212e+00  0.00000000000000e+00  3.00000000000000e-01 -1.21430643318376e-17
-1.51515151515152e+00  4.16333634234434e-17  3.00000000000000e-01  3.46944695195361e-18
-9.09090909090912e-01 -2.77555756156289e-17  3.00000000000000e-01  2.42861286636753e-17
-3.03030303030302e-01 -2.77555756156289e-17  3.00000000000000e-01  0.00000000000000e+00
3.03030303030302e-01  5.55111512312578e-17  3.00000000000000e-01  6.93889390390723e-18
9.09090909090912e-01  1.38777878078145e-16  3.00000000000000e-01  0.00000000000000e+00
1.51515151515152e+00  1.11022302462516e-16  3.00000000000000e-01  1.04083408558608e-17
2.12121212121212e+00  1.94289029309402e-16  3.00000000000000e-01 -3.46944695195361e-17
2.72727272727273e+00  0.00000000000000e+00  3.00000000000000e-01 -3.46944695195361e-18
3.33333333333333e+00 -1.38777878078145e-17  3.00000000000000e-01 -2.77555756156289e-17
3.93939393939394e+00 -2.77555756156289e-17  3.00000000000000e-01 -4.85722573273506e-17
4.54545454545455e+00  5.55111512312578e-17  3.00000000000000e-01 -1.73472347597681e-17
5.15151515151515e+00  2.77555756156289e-17  3.00000000000000e-01 -2.08166817117217e-17
5.75757575757576e+00  0.00000000000000e+00  3.00000000000000e-01 -2.08166817117217e-17
6.36363636363637e+00  1.11022302462516e-16  3.00000000000000e-01 -2.42861286636753e-17
6.96969696969697e+00  5.55111512312578e-17  3.00000000000000e-01  3.46944695195361e-18
7.57575757575757e+00  8.32667268468867e-17  3.00000000000000e-01  1.38777878078145e-17
8.18181818181818e+00  8.32667268468867e-17  3.00000000000000e-01  2.42861286636753e-17
8.78787878787879e+00 -1.94289029309402e-16  3.00000000000000e-01 -1.38777878078145e-17
9.39393939393939e+00  2.77555756156289e-17  3.00000000000000e-01 -3.46944695195361e-17
1.00000000000000e+01 -1.66533453693773e-16  3.00000000000000e-01 -6.93889390390723e-18
1.06060606060606e+01  1.66533453693773e-16  3.00000000000000e-01 -6.93889390390723e-18
1.12121212121212e+01  1.66533453693773e-16  3.00000000000000e-01 -6.93889390390723e-18
1.18181818181818e+01 -2.22044604925031e-16  3.00000000000000e-01 -2.77555756156289e-17
1.24242424242424e+01  3.33066907387547e-16  3.00000000000000e-01 -1.38777878078145e-17
1.30303030303030e+01  2.22044604925031e-16  3.00000000000000e-01  0.00000000000000e+00
1.36363636363636e+01  1.66533453693773e-16  3.00000000000000e-01 -2.77555756156289e-17
1.42424242424242e+01 -1.66533453693773e-16  3.00000000000000e-01 -1.38777878078145e-17
1.48484848484848e+01  1.66533453693773e-16  3.00000000000000e-01 -1.38777878078145e-17
1.54545454545455e+01  5.55111512312578e-17  3.00000000000000e-01  0.00000000000000e+00
1.60606060606061e+01 -1.66533453693773e-16  3.00000000000000e-01  6.93889390390723e-18
1.66666666666667e+01 -2.22044604925031e-16  3.00000000000000e-01 -1.38777878078145e-17
1.72727272727273e+01  1.11022302462516e-16  3.00000000000000e-01 -1.38777878078145e-17
1.78787878787879e+01  1.11022302462516e-16  3.00000000000000e-01 -1.38777878078145e-17
1.84848484848485e+01  0.00000000000000e+00  3.00000000000000e-01  2.08166817117217e-17
1.90909090909091e+01  2.22044604925031e-16  3.00000000000000e-01  6.93889390390723e-18
1.96969696969697e+01  2.22044604925031e-16  3.00000000000000e-01  1.38777878078145e-17
2.03030303030303e+01  1.11022302462516e-16  3.00000000000000e-01  1.38777878078145e-17
2.09090909090909e+01 -1.11022302462516e-16  3.00000000000000e-01  0.00000000000000e+00
2.15151515151515e+01  3.33066907387547e-16  3.00000000000000e-01 -6.93889390390723e-18
2.21212121212121e+01  2.22044604925031e-16  3.00000000000000e-01 -6.93889390390723e-18
2.27272727272727e+01  1.66533453693773e-16  3.00000000000000e-01  0.00000000000000e+00
2.33333333333333e+01 -5.55111512312578e-17  3.00000000000000e-01 -1.38777878078145e-17
2.39393939393939e+01  0.00000000000000e+00  3.00000000000000e-01 -2.08166817117217e-17
2.45454545454545e+01  8.32667268468867e-17  3.00000000000000e-01  2.08166817117217e-17
2.51515151515151e+01 -1.11022302462516e-16  3.00000000000000e-01  1.38777878078145e-17
2.57575757575758e+01 -3.33066907387547e-16  3.00000000000000e-01  3.46944695195361e-18
2.63636363636364e+01 -1.38777878078145e-16  3.00000000000000e-01  1.38777878078145e-17
2.69696969696970e+01  0.00000000000000e+00  3.00000000000000e-01  6.07153216591882e-18
2.75757575757576e+01 -1.11022302462516e-16  3.00000000000000e-01 -1.73472347597681e-17
2.81818181818182e+01 -1.66533453693773e-16  3.00000000000000e-01 -1.17093834628434e-17
2.87878787878788e+01  2.22044604925031e-16  3.00000000000000e-01  3.46944695195361e-18
2.93939393939394e+01 -1.11022302462516e-16  3.00000000000000e-01  2.42861286636753e-17
3.00000000000000e+01 -2.22044604925031e-16  3.00000000000000e-01  8.67361737988404e-18
3.30000000000000e+01  5.55111512312578e-17  3.00000000000000e-01 -2.25514051876985e-17
3.60000000000000e+01 -5.55111512312578e-17  3.00000000000000e-01 -1.90819582357449e-17
3.90000000000000e+01  8.32667268468867e-17  3.00000000000000e-01  4.33680868994202e-17
4.20000000000000e+01  8.32667268468867e-17  3.00000000000000e-01 -1.38777878078145e-17
4.50000000000000e+01 -6.24500451351651e-17  3.00000000000000e-01  1.73472347597681e-17
4.80000000000000e+01 -5.03069808033274e-17  3.00000000000000e-01 -3.46944695195361e-18
5.10000000000000e+01 -1.66533453693773e-16  3.00000000000000e-01 -1.04083408558608e-17
5.40000000000000e+01 -6.93889390390723e-17  3.00000000000000e-01  4.51028103753970e-17
5.70000000000000e+01  1.24900090270330e-16  3.00000000000000e-01  4.51028103753970e-17
6.00000000000000e+01 -1.11022302462516e-16  3.00000000000000e-01  3.81639164714898e-17
6.30000000000000e+01  6.93889390390723e-17  3.00000000000000e-01  2.42861286636753e-17
6.60000000000000e+01  5.55111512312578e-17  3.00000000000000e-01 -5.20417042793042e-17
6.90000000000000e+01  4.51028103753970e-17  3.00000000000000e-01  2.77555756156289e-17
7.20000000000000e+01  3.46944695195361e-18  3.00000000000000e-01 -2.42861286636753e-17
7.50000000000000e+01  3.42607886505419e-17  3.00000000000000e-01  1.38777878078145e-17
7.80000000000000e+01 -6.59194920871187e-17  3.00000000000000e-01 -1.04083408558608e-17
8.10000000000000e+01  3.81639164714898e-17  3.00000000000000e-01  6.59194920871187e-17
8.40000000000000e+01  1.21430643318376e-17  3.00000000000000e-01  4.85722573273506e-17
8.70000000000000e+01 -2.60208521396521e-18  3.00000000000000e-01  2.42861286636753e-17
9.00000000000000e+01 -5.29395592033938e-23  3.00000000000000e-01  6.93889390390723e-18
9.30000000000000e+01  3.03576608295941e-18  3.00000000000000e-01  0.00000000000000e+00
9.60000000000000e+01 -1.47451495458029e-17  3.00000000000000e-01 -2.42861286636753e-17
9.90000000000000e+01  1.73472347597681e-17  3.00000000000000e-01  3.46944695195361e-18
1.02000000000000e+02  2.94902990916057e-17  3.00000000000000e-01 -7.63278329429795e-17
1.05000000000000e+02  5.96311194867027e-18  3.00000000000000e-01 -4.51028103753970e-17
1.08000000000000e+02  4.16333634234434e-17  3.00000000000000e-01  6.59194920871187e-17
1.11000000000000e+02  2.77555756156289e-17  3.00000000000000e-01 -3.46944695195361e-17
1.14000000000000e+02  3.46944695195361e-17  3.00000000000000e-01 -1.73472347597681e-17
1.17000000000000e+02 -7.97972798949331e-17  3.00000000000000e-01  2.42861286636753e-17
1.20000000000000e+02 -2.08166817117217e-17  3.00000000000000e-01 -4.16333634234434e-17
1.23000000000000e+02 -1.38777878078145e-17  3.00000000000000e-01  5.20417042793042e-17
1.26000000000000e+02 -1.73472347597681e-17  3.00000000000000e-01 -1.04083408558608e-17
1.29000000000000e+02 -3.46944695195361e-18  3.00000000000000e-01  6.93889390390723e-18
1.32000000000000e+02 -8.76035355368288e-17  3.00000000000000e-01 -8.84708972748172e-17
1.35000000000000e+02  2.08166817117217e-17  3.00000000000000e-01 -5.20417042793042e-18
1.38000000000000e+02  6.24500451351651e-17  3.00000000000000e-01 -6.93889390390723e-18
1.41000000000000e+02 -6.93889390390723e-17  3.00000000000000e-01 -8.32667268468867e-17
1.44000000000000e+02 -1.11022302462516e-16  3.00000000000000e-01 -5.55111512312578e-17
1.47000000000000e+02 -1.66533453693773e-16  3.00000000000000e-01 -2.77555756156289e-17
1.50000000000000e+02  0.00000000000000e+00  3.00000000000000e-01  5.55111512312578e-17
1.53000000000000e+02 -2.77555756156289e-17  3.00000000000000e-01  5.55111512312578e-17
1.56000000000000e+02 -5.20417042793042e-17  3.00000000000000e-01 -1.38777878078145e-17
1.59000000000000e+02 -8.67361737988404e-17  3.00000000000000e-01 -6.93889390390723e-18
1.62000000000000e+02  4.16333634234434e-17  3.00000000000000e-01  6.93889390390723e-18
1.65000000000000e+02 -6.24500451351651e-17  3.00000000000000e-01  3.46944695195361e-17
1.68000000000000e+02  5.55111512312578e-17  3.00000000000000e-01  4.20670442924376e-17
1.71000000000000e+02  6.24500451351651e-17  3.00000000000000e-01  0.00000000000000e+00
1.74000000000000e+02 -1.38777878078145e-17  3.00000000000000e-01  6.24500451351651e-17
1.77000000000000e+02 -3.46944695195361e-18  3.00000000000000e-01  2.08166817117217e-17
1.80000000000000e+02  9.46633086265214e-29  3.00000000000000e-01  3.78653234506086e-29
--
Contents of "./Airfoils/weis_job_00_AeroDyn15_Polar_02.dat":
 DEFAULT         = InterpOrd           
 1               = NonDimArea          
 0               = NumCoords           
 AF29_BL.txt     = BL_file             
 1               = NumTabs             
 8.000000        = Re                  
 0               = Ctrl                
 True            = InclUAdata          
 0.000000        = alpha0              
 0.000000        = alpha1              
 0.000000        = alpha2              
 1.000000        = eta_e               
 0.000000        = C_nalpha            
 Default         = T_f0                
 Default         = T_V0                
 Default         = T_p                 
 Default         = T_VL                
 Default         = b1                  
 Default         = b2                  
 Default         = b5                  
 Default         = A1                  
 Default         = A2                  
 Default         = A5                  
 0.000000        = S1                  
 0.000000        = S2                  
 0.000000        = S3                  
 0.000000        = S4                  
 0.000000        = Cn1                 
 0.000000        = Cn2                 
 Default         = St_sh               
 0.000000        = Cd0                 
 0.000000        = Cm0                 
 0.000000        = k0                  
 0.000000        = k1                  
 0.000000        = k2                  
 0.000000        = k3                  
 0.000000        = k1_hat              
 Default         = x_cp_bar            
 Default         = UACutout            
 Default         = filtCutOff          
 200             = NumAlf              
-1.80000000000000e+02 -2.50057842397769e-14  2.98637710539328e-01 -2.52505268294905e-14
-1.77000000000000e+02  6.33166896547725e-03  2.99851332259324e-01  5.11115559864495e-03
-1.74000000000000e+02  1.26633379309549e-02  2.99879720065188e-01  1.02223111972903e-02
-1.71000000000000e+02  1.89950068964325e-02  2.99903290311051e-01  1.53334667959355e-02
-1.68000000000000e+02  2.52953387555951e-02  2.99943248930031e-01  1.66096387895629e-02
-1.65000000000000e+02  3.15800580537017e-02  2.99976019978636e-01  1.60190219545014e-02
-1.62000000000000e+02  3.78647785654307e-02  2.99995595673084e-01  1.54489463317739e-02
-1.59000000000000e+02  3.87208148014643e-02  3.02961660917592e-01  1.37500626658954e-02
-1.56000000000000e+02  2.88073642615827e-02  3.08322638368723e-01  9.77980692263249e-03
-1.53000000000000e+02  1.89848167382438e-02  3.13683615819853e-01  5.81877025564773e-03
-1.50000000000000e+02  9.20945666001732e-03  3.19044733043494e-01  1.86566111429043e-03
-1.47000000000000e+02  1.22239782096152e-02  3.25601146845796e-01  4.59997045108007e-03
-1.44000000000000e+02  1.52421735714196e-02  3.32157560648098e-01  7.33799977205930e-03
-1.41000000000000e+02  1.82652250497479e-02  3.38713974450400e-01  1.00810487008724e-02
-1.38000000000000e+02  2.00819312871710e-02  3.45529569147592e-01  1.19374760949672e-02
-1.35000000000000e+02  2.12975013200711e-02  3.52474319890718e-01  1.33515292733593e-02
-1.32000000000000e+02  2.25161736692956e-02  3.59419070633844e-01  1.47677502147339e-02
-1.29000000000000e+02  2.32625737534604e-02  3.64459827490618e-01  1.59411637800374e-02
-1.26000000000000e+02  2.30565134172696e-02  3.66905683649559e-01  1.66239729123037e-02
-1.23000000000000e+02  2.28523823138978e-02  3.69351539808501e-01  1.73072842251094e-02
-1.20000000000000e+02  2.26508032623500e-02  3.71797306147151e-01  1.79910736089054e-02
-1.17000000000000e+02  2.11892050148153e-02  3.73282901569530e-01  1.81514274323190e-02
-1.14000000000000e+02  1.97285496927109e-02  3.74768496991909e-01  1.83117964390382e-02
-1.11000000000000e+02  1.82693259352827e-02  3.76254092414289e-01  1.84721806345056e-02
-1.08000000000000e+02  1.61981813818451e-02  3.76861803550663e-01  1.83571369300018e-02
-1.05000000000000e+02  1.38216925240056e-02  3.77031997838494e-01  1.81048652391821e-02
-1.02000000000000e+02  1.14458443866332e-02  3.77202192126326e-01  1.78526457447504e-02
-9.90000000000000e+01  8.87665177091425e-03  3.76866560454943e-01  1.74961333473554e-02
-9.60000000000000e+01  5.91769865408096e-03  3.75516729278413e-01  1.69305227903787e-02
-9.30000000000000e+01  2.95874553724764e-03  3.74166898101882e-01  1.63650626758775e-02
-9.00000000000000e+01 -2.07579585681013e-07  3.72817256314900e-01  1.57998067293524e-02
-8.70000000000000e+01 -2.95916069641898e-03  3.74167087491430e-01  1.59803208746536e-02
-8.40000000000000e+01 -5.91811381325234e-03  3.75516918667961e-01  1.61613205845664e-02
-8.10000000000000e+01 -8.87706693008562e-03  3.76866749844491e-01  1.63428775614653e-02
-7.80000000000000e+01 -1.14461776616182e-02  3.77202168247029e-01  1.62321403319869e-02
-7.50000000000000e+01 -1.38220259250493e-02  3.77031973959198e-01  1.59756839460411e-02
-7.20000000000000e+01 -1.61985148461816e-02  3.76861779671367e-01  1.57194687705726e-02
-6.90000000000000e+01 -1.82695305381746e-02  3.76253883976189e-01  1.53257973753528e-02
-6.60000000000000e+01 -1.97287545459401e-02  3.74768288553810e-01  1.46560299068936e-02
-6.30000000000000e+01 -2.11894100283174e-02  3.73282693131430e-01  1.39862660918405e-02
-6.00000000000000e+01 -2.26509493541818e-02  3.71797052798905e-01  1.33164933610774e-02
-5.70000000000000e+01 -2.28524107887033e-02  3.69351196639963e-01  1.23649917178993e-02
-5.40000000000000e+01 -2.30565422072625e-02  3.66905340481021e-01  1.14136525228724e-02
-5.10000000000000e+01 -2.32626027753025e-02  3.64459484322079e-01  1.04624993776476e-02
-4.80000000000000e+01 -2.25160024213592e-02  3.59418096242953e-01  9.49426108100476e-03
-4.50000000000000e+01 -2.12973305702136e-02  3.52473345499827e-01  8.51769864137129e-03
-4.20000000000000e+01 -2.00817609169129e-02  3.45528594756701e-01  7.54149421134112e-03
-3.90000000000000e+01 -1.82648004834885e-02  3.38713054545551e-01  6.74776918106763e-03
-3.60000000000000e+01 -1.52417497925803e-02  3.32156640743249e-01  6.31946475404777e-03
-3.30000000000000e+01 -1.22235550189240e-02  3.25600226940947e-01  5.89147432426092e-03
-3.00000000000000e+01 -9.20923526276440e-03  3.19043851419981e-01  5.46396420094762e-03
-2.93939393939394e+01 -1.03401768075606e-02  3.18050040436936e-01  5.25839767609837e-03
-2.87878787878788e+01 -1.14715477951888e-02  3.17056229453890e-01  5.05284509883601e-03
-2.81818181818182e+01 -1.26033896508738e-02  3.16062418470845e-01  4.84730900487701e-03
-2.75757575757576e+01 -1.37357493048369e-02  3.15068607487799e-01  4.64179258425889e-03
-2.69696969696970e+01 -1.48686801381674e-02  3.14074796504753e-01  4.43629990694735e-03
-2.63636363636364e+01 -1.60022431306594e-02  3.13080985521708e-01  4.23083624870259e-03
-2.57575757575758e+01 -1.71365082627840e-02  3.12087174538662e-01  4.02540857334494e-03
-2.51515151515151e+01 -1.82715562399478e-02  3.11093363555617e-01  3.82002626660736e-03
-2.45454545454545e+01 -1.94074806289284e-02  3.10099552572571e-01  3.61470228927835e-03
-2.39393939393939e+01 -2.05443905261961e-02  3.09105741589526e-01  3.40945505854133e-03
-2.33333333333333e+01 -2.16824139193071e-02  3.08111930606480e-01  3.20431165710666e-03
-2.27272727272727e+01 -2.28217019608845e-02  3.07118119623434e-01  2.99931360918488e-03
-2.21212121212121e+01 -2.39624344579470e-02  3.06124308640389e-01  2.79452798701515e-03
-2.15151515151515e+01 -2.51048269998326e-02  3.05130497657343e-01  2.59007063061901e-03
-2.09090909090909e+01 -2.62491403252512e-02  3.04136686674298e-01  2.38616031789566e-03
-2.03030303030303e+01 -2.73956927944211e-02  3.03142875691252e-01  2.17666853669530e-03
-1.96969696969697e+01 -2.63935730215892e-02  3.02234290515050e-01  2.15282028763437e-03
-1.90909090909091e+01 -2.32709760376878e-02  3.01409837622104e-01  2.28757040835524e-03
-1.84848484848485e+01 -2.01517793367802e-02  3.00585384729159e-01  1.80111002433850e-03
-1.78787878787879e+01 -1.70360501144743e-02  2.99999152745205e-01  1.31464964032176e-03
-1.72727272727273e+01 -1.39238573486577e-02  2.99995797606827e-01  8.28189256305021e-04
-1.66666666666667e+01 -1.08152718589818e-02  2.99991756310879e-01  3.41728872288283e-04
-1.60606060606061e+01 -7.71036636874695e-03  2.99987009433479e-01 -5.51868939374775e-07
-1.54545454545455e+01 -4.60921556929714e-03  2.99981536810621e-01 -3.04377133199859e-06
-1.48484848484848e+01 -1.51189618704856e-03  2.99975317502585e-01 -6.18830206031325e-06
-1.42424242424242e+01 -3.99375699912968e-04  2.99968329756270e-01 -9.73609946716778e-06
-1.36363636363636e+01 -3.41284500511102e-04  2.99960550965314e-01 -1.35504875087835e-05
-1.30303030303030e+01 -2.87267820446774e-04  2.99951957627848e-01 -1.75502841564179e-05
-1.24242424242424e+01 -2.37411253909275e-04  2.99942525301702e-01 -2.16842318599532e-05
-1.18181818181818e+01 -1.91802809451237e-04  2.99932228556909e-01 -2.59183728775359e-05
-1.12121212121212e+01 -1.50532995721898e-04  2.99921040925295e-01 -3.02293186644049e-05
-1.06060606060606e+01 -1.13694910878103e-04  2.99908934846949e-01 -3.46004347157639e-05
-1.00000000000000e+01 -8.13843358608429e-05  2.99895881613347e-01 -3.90195667224263e-05
-9.39393939393939e+00 -6.07049573358859e-05  2.99898696770672e-01 -4.19341265017452e-05
-8.78787878787879e+00 -4.00810359572762e-05  2.99901351613851e-01 -4.48400217831283e-05
[...]
1.56000000000000e+02 -9.72787343472740e-01  9.78228433741581e-02 -6.36541906291760e-01
1.59000000000000e+02 -9.24178173474502e-01  3.19304129321026e-02 -6.43863287451989e-01
1.62000000000000e+02 -8.17165187532706e-01  1.00000000000000e-02 -6.17028781797434e-01
1.65000000000000e+02 -6.81017510487101e-01  1.00000000000000e-02 -5.73155642696614e-01
1.68000000000000e+02 -5.44869833441494e-01  1.00000000000000e-02 -5.29282503595794e-01
1.71000000000000e+02 -4.08694301848070e-01  1.00000000000000e-02 -4.50103856660870e-01
1.74000000000000e+02 -2.72462867898893e-01  1.00000000000000e-02 -3.00069237774111e-01
1.77000000000000e+02 -1.36231433949715e-01  1.00000000000000e-02 -1.50034618887352e-01
1.80000000000000e+02 -5.38402655791970e-13  1.00000000000000e-02 -5.92970117452296e-13
--
Contents of "./Airfoils/weis_job_00_AeroDyn15_Polar_29.dat":
 DEFAULT         = InterpOrd           
 1               = NonDimArea          
 0               = NumCoords           
 AF29_BL.txt     = BL_file             
 1               = NumTabs             
 8.000000        = Re                  
 0               = Ctrl                
 True            = InclUAdata          
 -5.308753       = alpha0              
 10.299564       = alpha1              
 -11.037301      = alpha2              
 1.000000        = eta_e               
 6.833235        = C_nalpha            
 Default         = T_f0                
 Default         = T_V0                
 Default         = T_p                 
 Default         = T_VL                
 Default         = b1                  
 Default         = b2                  
 Default         = b5                  
 Default         = A1                  
 Default         = A2                  
 Default         = A5                  
 0.000000        = S1                  
 0.000000        = S2                  
 0.000000        = S3                  
 0.000000        = S4                  
 1.647901        = Cn1                 
 -2.009998       = Cn2                 
 Default         = St_sh               
 0.006623        = Cd0                 
 -0.131160       = Cm0                 
 0.000000        = k0                  
 0.000000        = k1                  
 0.000000        = k2                  
 0.000000        = k3                  
 0.000000        = k1_hat              
 Default         = x_cp_bar            
 Default         = UACutout            
 Default         = filtCutOff          
 200             = NumAlf              
-1.80000000000000e+02 -5.38402655791970e-13  1.00000000000000e-02 -5.92970117452296e-13
-1.77000000000000e+02  1.36231433949333e-01  1.00000000000000e-02  1.20027695109544e-01
-1.74000000000000e+02  2.72462867898675e-01  1.00000000000000e-02  2.40055390219097e-01
-1.71000000000000e+02  4.08694301848015e-01  1.00000000000000e-02  3.60083085328648e-01
-1.68000000000000e+02  5.44869833441494e-01  1.00000000000000e-02  4.49297885411101e-01
-1.65000000000000e+02  6.81017510487101e-01  1.00000000000000e-02  5.23159499632099e-01
-1.62000000000000e+02  8.17165187532706e-01  1.00000000000000e-02  5.97021113853096e-01
-1.59000000000000e+02  9.24178173474502e-01  3.19304129321025e-02  6.43863287451989e-01
-1.56000000000000e+02  9.72787343472740e-01  9.78228433741581e-02  6.36541906291760e-01
-1.53000000000000e+02  1.02139651347098e+00  1.63715273816213e-01  6.29220525131532e-01
-1.50000000000000e+02  1.06999659693510e+00  2.29612612390016e-01  6.21898645790669e-01
-1.47000000000000e+02  1.04089110625714e+00  3.37482961861413e-01  6.10316460840471e-01
-1.44000000000000e+02  1.01178561557919e+00  4.45353311332810e-01  5.98734275890274e-01
-1.41000000000000e+02  9.82680124901229e-01  5.53223660804208e-01  5.87152090940077e-01
-1.38000000000000e+02  9.49983117362543e-01  6.66736945870168e-01  5.85761805708180e-01
-1.35000000000000e+02  9.15496370974339e-01  7.83062240861337e-01  5.89450388147962e-01
-1.32000000000000e+02  8.81009624586135e-01  8.99387535852506e-01  5.93138970587744e-01
-1.29000000000000e+02  8.42022679722806e-01  1.01424712789621e+00  5.98306158621950e-01
-1.26000000000000e+02  7.94013622934423e-01  1.12616824153413e+00  6.06437692615482e-01
-1.23000000000000e+02  7.46004566146040e-01  1.23808935517204e+00  6.14569226609014e-01
-1.20000000000000e+02  6.97994162164955e-01  1.35000889989179e+00  6.22700637109882e-01
-1.17000000000000e+02  6.35582388340058e-01  1.44515684931427e+00  6.29511922041734e-01
-1.14000000000000e+02  5.73170614515160e-01  1.54030479873674e+00  6.36323206973586e-01
-1.11000000000000e+02  5.10758840690262e-01  1.63545274815922e+00  6.43134491905438e-01
-1.08000000000000e+02  4.41966449696049e-01  1.71265181687158e+00  6.46620852736892e-01
-1.05000000000000e+02  3.69994109407623e-01  1.78090558624510e+00  6.48450149719223e-01
-1.02000000000000e+02  2.98021769119197e-01  1.84915935561863e+00  6.50279446701554e-01
-9.90000000000000e+01  2.25037191224049e-01  1.90621284740747e+00  6.49722648015152e-01
-9.60000000000000e+01  1.50023039992201e-01  1.94080937395560e+00  6.44381640447445e-01
-9.30000000000000e+01  7.50088887603529e-02  1.97540590050373e+00  6.39040632879737e-01
-9.00000000000000e+01 -5.26247149518354e-06  2.00999757294815e+00  6.33698564397776e-01
-8.70000000000000e+01 -7.50194137033430e-02  1.97540104640002e+00  6.13234703941728e-01
-8.40000000000000e+01 -1.50033564935191e-01  1.94080451985189e+00  5.92770843485680e-01
-8.10000000000000e+01 -2.25047716167039e-01  1.90620799330376e+00  5.72306983029632e-01
-7.80000000000000e+01 -2.98031867277558e-01  1.84914977919845e+00  5.49209191681695e-01
-7.50000000000000e+01 -3.70004207565984e-01  1.78089600982493e+00  5.24798572933871e-01
-7.20000000000000e+01 -4.41976547854410e-01  1.71264224045140e+00  5.00387954186046e-01
-6.90000000000000e+01 -5.10767597442830e-01  1.63543939832153e+00  4.75573303742223e-01
-6.60000000000000e+01 -5.73179371267728e-01  1.54029144889906e+00  4.49948469681423e-01
-6.30000000000000e+01 -6.35591145092625e-01  1.44514349947658e+00  4.24323635620624e-01
-6.00000000000000e+01 -6.98002245321171e-01  1.34999476559502e+00  3.98698850676225e-01
-5.70000000000000e+01 -7.46011302109554e-01  1.23807365195710e+00  3.74124214732672e-01
-5.40000000000000e+01 -7.94020358897937e-01  1.12615253831919e+00  3.49549578789119e-01
-5.10000000000000e+01 -8.42029415686320e-01  1.01423142468127e+00  3.24974942845565e-01
-4.80000000000000e+01 -8.81014463287016e-01  8.99371214704056e-01  3.01630466807341e-01
-4.50000000000000e+01 -9.15501209675220e-01  7.83045919712888e-01  2.78899202666246e-01
-4.20000000000000e+01 -9.12487956063424e-01  6.66720624721718e-01  2.56167938525151e-01
-3.90000000000000e+01 -9.07684208579109e-01  5.53208525936189e-01  2.33013023852281e-01
-3.60000000000000e+01 -8.99289699257066e-01  4.45338176464792e-01  2.09008495458090e-01
-3.30000000000000e+01 -8.90895189935023e-01  3.37467826993394e-01  1.85003967063898e-01
-3.00000000000000e+01 -8.93943039596491e-01  2.29598752443424e-01  1.60999150286269e-01
-2.93939393939394e+01 -8.85386263197087e-01  2.18820961664416e-01  1.53658371527339e-01
-2.87878787878788e+01 -8.77315313758666e-01  2.08043170885408e-01  1.46317592768408e-01
-2.81818181818182e+01 -8.69730191281226e-01  1.97265380106400e-01  1.38976814009477e-01
-2.75757575757576e+01 -8.62630895764768e-01  1.86487589327392e-01  1.31636035250546e-01
-2.69696969696970e+01 -8.56017427209292e-01  1.75709798548384e-01  1.24295256491616e-01
-2.63636363636364e+01 -8.49889785614797e-01  1.64932007769375e-01  1.16954477732685e-01
-2.57575757575758e+01 -8.44247970981285e-01  1.54154216990367e-01  1.09613698973754e-01
-2.51515151515151e+01 -8.39091983308754e-01  1.43376426211359e-01  1.02272920214823e-01
-2.45454545454545e+01 -8.38117189006669e-01  1.32598635432351e-01  9.49321414558926e-02
-2.39393939393939e+01 -8.38434911877861e-01  1.21820844653343e-01  8.75913626969619e-02
-2.33333333333333e+01 -8.38752634749054e-01  1.11043053874335e-01  8.02505839380311e-02
-2.27272727272727e+01 -8.39070357620247e-01  1.00265263095327e-01  7.29098051791004e-02
-2.21212121212121e+01 -8.39388080491440e-01  8.94874723163185e-02  6.55690264201697e-02
-2.15151515151515e+01 -8.39705803362632e-01  7.87096815373103e-02  5.82282476612389e-02
-2.09090909090909e+01 -8.40023526233825e-01  6.79318907583022e-02  5.08874689023082e-02
-2.03030303030303e+01 -8.40341249105018e-01  5.71540999792940e-02  4.35466901433774e-02
-1.96969696969697e+01 -8.31806549857242e-01  5.04829626089083e-02  3.49885480623871e-02
-1.90909090909091e+01 -8.14533013010838e-01  4.78657865984201e-02  2.52286625232748e-02
-1.84848484848485e+01 -7.97259476164434e-01  4.52486105879318e-02  1.54687769841625e-02
-1.78787878787879e+01 -7.79985939318030e-01  4.26314345774436e-02  5.70889144505015e-03
-1.72727272727273e+01 -7.62712402471627e-01  4.00142585669554e-02 -4.05099409406211e-03
-1.66666666666667e+01 -7.45438865625223e-01  3.73970825564672e-02 -1.38108796331744e-02
-1.60606060606061e+01 -7.28165328778819e-01  3.47799065459790e-02 -2.35707651722868e-02
-1.54545454545455e+01 -7.10891791932415e-01  3.21627305354908e-02 -3.33306507113990e-02
-1.48484848484848e+01 -6.93618255086011e-01  2.95455545250025e-02 -4.30905362505114e-02
-1.42424242424242e+01 -6.76344718239608e-01  2.69283785145143e-02 -5.28504217896237e-02
-1.36363636363636e+01 -6.59071181393204e-01  2.43112025040261e-02 -6.26103073287360e-02
-1.30303030303030e+01 -6.41797644546800e-01  2.16940264935379e-02 -7.23701928678483e-02
-1.24242424242424e+01 -6.24524107700396e-01  1.90768504830497e-02 -8.21300784069606e-02
-1.18181818181818e+01 -6.07250570853992e-01  1.64596744725615e-02 -9.18899639460729e-02
-1.12121212121212e+01 -5.89977034007588e-01  1.38424984620732e-02 -1.01649849485185e-01
-1.06060606060606e+01 -5.72703497161185e-01  1.12253224515850e-02 -1.11409735024298e-01
-1.00000000000000e+01 -5.55429960314781e-01  8.60814644109681e-03 -1.21169620563410e-01
-9.39393939393939e+00 -4.85150937479553e-01  8.25807209447825e-03 -1.22309639527609e-01
-8.78787878787879e+00 -4.14529141230490e-01  8.01539588896939e-03 -1.23423020555153e-01
-8.18181818181818e+00 -3.43131227010667e-01  7.77271968346053e-03 -1.24663681899237e-01
-7.57575757575758e+00 -2.71560659517156e-01  7.43004347795167e-03 -1.25949782610242e-01
-6.96969696969697e+00 -1.98868667505508e-01  7.18736727244281e-03 -1.27275796365343e-01
-6.36363636363636e+00 -1.26526333574335e-01  7.04573039407195e-03 -1.28625617635568e-01
-5.75757575757576e+00 -5.35004475403709e-02  6.80206171866753e-03 -1.30087629687995e-01
-5.15151515151515e+00  1.87430492948929e-02  6.56071862465846e-03 -1.31535688252049e-01
-4.54545454545454e+00  9.19079340494241e-02  6.41800339811320e-03 -1.32932977912264e-01
-3.93939393939394e+00  1.64948109444865e-01  6.15251794434246e-03 -1.34466187194801e-01
-3.33333333333333e+00  2.38761525974649e-01  5.83358276666237e-03 -1.36064920633363e-01
-2.72727272727273e+00  3.12676918557199e-01  5.49090656115351e-03 -1.37772747510772e-01
-2.12121212121212e+00  3.86388359034217e-01  5.24823035564465e-03 -1.39562387510487e-01
-1.51515151515152e+00  4.60158320493259e-01  5.00568331641802e-03 -1.41360216785074e-01
-9.09090909090912e-01  5.35136616611921e-01  4.76287794462693e-03 -1.43096976442985e-01
-3.03030303030302e-01  6.08560161120510e-01  4.62067154700453e-03 -1.44755299170968e-01
3.03030303030302e-01  6.81035473752161e-01  4.60000000000000e-03 -1.46303357735023e-01
9.09090909090912e-01  7.53569409538999e-01  4.60000000000000e-03 -1.47614389723135e-01
1.51515151515152e+00  8.25119697999497e-01  4.70568331641802e-03 -1.48922733265672e-01
2.12121212121212e+00  8.96169677492638e-01  4.84823035564465e-03 -1.49992921422579e-01
2.72727272727273e+00  9.66140239036026e-01  5.09090656115351e-03 -1.51054532805768e-01
3.33333333333333e+00  1.03461277068206e+00  5.33358276666237e-03 -1.51800748299987e-01
3.93939393939394e+00  1.10100671494598e+00  5.61438845825685e-03 -1.52376258972171e-01
4.54545454545455e+00  1.16510972810273e+00  6.03787035536019e-03 -1.52462129644640e-01
5.15151515151515e+00  1.22394427744687e+00  6.62143724931693e-03 -1.51917844126025e-01
5.75757575757576e+00  1.28261444498437e+00  7.20611406225543e-03 -1.51289809896241e-01
6.36363636363637e+00  1.33711568671734e+00  7.93719118221584e-03 -1.49979887241496e-01
6.96969696969697e+00  1.38973933508524e+00  8.57473454488562e-03 -1.48563163637786e-01
7.57575757575757e+00  1.43802653746710e+00  9.19013043385501e-03 -1.46399565220483e-01
8.18181818181818e+00  1.48343389648390e+00  9.83101529150939e-03 -1.43889735775661e-01
8.78787878787879e+00  1.52182091007134e+00  1.04153958889694e-02 -1.40099706886796e-01
9.39393939393939e+00  1.54877493556316e+00  1.09161441889565e-02 -1.34696630204913e-01
1.00000000000000e+01  1.57933654567095e+00  1.14490186896226e-02 -1.30307457958868e-01
1.06060606060606e+01  1.60686455045458e+00  1.20263263889644e-02 -1.25599932869892e-01
1.12121212121212e+01  1.63119406287922e+00  1.26715549434518e-02 -1.20870228037208e-01
1.18181818181818e+01  1.65356670848177e+00  1.34938309228301e-02 -1.16557654220944e-01
1.24242424242424e+01  1.67470923967504e+00  1.43767215789993e-02 -1.12454752894503e-01
1.30303030303030e+01  1.68782211013736e+00  1.56948528020695e-02 -1.08186581195344e-01
1.36363636363636e+01  1.69013382741577e+00  1.76907952519080e-02 -1.03872942301952e-01
1.42424242424242e+01  1.69299204985566e+00  1.96713947779228e-02 -1.00219109573808e-01
1.48484848484848e+01  1.69641053778001e+00  2.18988521678527e-02 -9.70213773985768e-02
1.54545454545455e+01  1.69785311243008e+00  2.43037146137293e-02 -9.44784412602461e-02
1.60606060606061e+01  1.69537316138597e+00  2.69584886478290e-02 -9.20650103201554e-02
1.66666666666667e+01  1.68840156519762e+00  2.98731793640553e-02 -8.98626588528890e-02
1.72727272727273e+01  1.67935520166563e+00  3.28021288487753e-02 -8.79404248382144e-02
1.78787878787879e+01  1.66711316448320e+00  3.58629157217390e-02 -8.62940388976589e-02
1.84848484848485e+01  1.65166894627562e+00  3.91113761159199e-02 -8.48379816646057e-02
1.90909090909091e+01  1.63149569950088e+00  4.25451889211185e-02 -8.36546162877017e-02
1.96969696969697e+01  1.60917287606082e+00  4.60063098701680e-02 -8.26839114656663e-02
2.03030303030303e+01  1.58389337121513e+00  4.96037767472921e-02 -8.21783016609077e-02
2.09090909090909e+01  1.56050365776667e+00  5.28625525476607e-02 -8.21000000000000e-02
2.15151515151515e+01  1.53437671720143e+00  5.62987105015402e-02 -8.24141015002200e-02
2.21212121212121e+01  1.50871040812653e+00  5.94312515956743e-02 -8.31427890752594e-02
2.27272727272727e+01  1.47967467953772e+00  6.27618260739701e-02 -8.45309130369851e-02
2.33333333333333e+01  1.45242726704450e+00  6.56264863117303e-02 -8.64280663936387e-02
2.39393939393939e+01  1.42367280890981e+00  6.86303112936000e-02 -8.90057941384728e-02
2.45454545454545e+01  1.39434680903447e+00  7.13360676549607e-02 -9.21905448061054e-02
2.51515151515151e+01  1.37101175590754e+00  7.82862642790144e-02 -9.74701359946689e-02
2.57575757575758e+01  1.36719795121543e+00  9.72002075770336e-02 -1.06836233476648e-01
2.63636363636364e+01  1.36338414652332e+00  1.16114150875052e-01 -1.16202330958626e-01
2.69696969696970e+01  1.35957034183121e+00  1.35028094173072e-01 -1.25568428440605e-01
2.75757575757576e+01  1.35575653713911e+00  1.53942037471090e-01 -1.34934525922584e-01
2.81818181818182e+01  1.35194273244700e+00  1.72855980769109e-01 -1.44300623404562e-01
2.87878787878788e+01  1.34812892775489e+00  1.91769924067129e-01 -1.53666720886541e-01
2.93939393939394e+01  1.34431512306278e+00  2.10683867365148e-01 -1.63032818368520e-01
3.00000000000000e+01  1.34050131837067e+00  2.29597810663167e-01 -1.72398915850498e-01
3.30000000000000e+01  1.33659315681477e+00  3.37467826993394e-01 -2.02344948912213e-01
3.60000000000000e+01  1.33268534533479e+00  4.45338176464791e-01 -2.32290598083967e-01
3.90000000000000e+01  1.32877753385481e+00  5.53208525936189e-01 -2.62236247255721e-01
4.20000000000000e+01  1.31968282429914e+00  6.66720624721719e-01 -2.87888210822848e-01
4.50000000000000e+01  1.30800172510205e+00  7.83045919712888e-01 -3.11399175317067e-01
4.80000000000000e+01  1.25882062590496e+00  8.99371214704056e-01 -3.34910139811286e-01
5.10000000000000e+01  1.20314210120104e+00  1.01423142468127e+00 -3.58026321705862e-01
5.40000000000000e+01  1.13442913867267e+00  1.12615253831919e+00 -3.80350533112460e-01
5.70000000000000e+01  1.06571617614430e+00  1.23807365195710e+00 -4.02674744519057e-01
6.00000000000000e+01  9.97003213615926e-01  1.34999476559502e+00 -4.24998955925656e-01
6.30000000000000e+01  9.08187398785659e-01  1.44514349947658e+00 -4.47113137532084e-01
6.60000000000000e+01  8.19370643727151e-01  1.54029144889906e+00 -4.69227309315233e-01
6.90000000000000e+01  7.30553888668642e-01  1.63543939832153e+00 -4.91341481098382e-01
7.20000000000000e+01  6.32166385257987e-01  1.71264224045140e+00 -5.12906937926404e-01
7.50000000000000e+01  5.29006030844576e-01  1.78089600982493e+00 -5.34198755261730e-01
7.80000000000000e+01  4.25845676431165e-01  1.84914977919845e+00 -5.55490572597056e-01
8.10000000000000e+01  3.21368138686532e-01  1.90620799330376e+00 -5.76087784661238e-01
8.40000000000000e+01  2.14247930727452e-01  1.94080451985189e+00 -5.95291407376591e-01
8.70000000000000e+01  1.07127722768373e-01  1.97540104640002e+00 -6.14495030091944e-01
9.00000000000000e+01  7.51480929467307e-06  2.00999757294815e+00 -6.33698652807297e-01
9.30000000000000e+01 -7.50088887603528e-02  1.97540590050373e+00 -6.39040632879737e-01
9.60000000000000e+01 -1.50023039992201e-01  1.94080937395560e+00 -6.44381640447445e-01
9.90000000000000e+01 -2.25037191224049e-01  1.90621284740747e+00 -6.49722648015152e-01
1.02000000000000e+02 -2.98021769119197e-01  1.84915935561863e+00 -6.50279446701554e-01
1.05000000000000e+02 -3.69994109407624e-01  1.78090558624510e+00 -6.48450149719223e-01
1.08000000000000e+02 -4.41966449696049e-01  1.71265181687158e+00 -6.46620852736892e-01
1.11000000000000e+02 -5.10758840690263e-01  1.63545274815922e+00 -6.43134491905438e-01
1.14000000000000e+02 -5.73170614515160e-01  1.54030479873674e+00 -6.36323206973586e-01
1.17000000000000e+02 -6.35582388340058e-01  1.44515684931427e+00 -6.29511922041734e-01
1.20000000000000e+02 -6.97994162164955e-01  1.35000889989179e+00 -6.22700637109882e-01
1.23000000000000e+02 -7.46004566146041e-01  1.23808935517204e+00 -6.14569226609014e-01
1.26000000000000e+02 -7.94013622934423e-01  1.12616824153413e+00 -6.06437692615482e-01
1.29000000000000e+02 -8.42022679722806e-01  1.01424712789621e+00 -5.98306158621950e-01
1.32000000000000e+02 -8.81009624586135e-01  8.99387535852505e-01 -5.93138970587744e-01
1.35000000000000e+02 -9.15496370974339e-01  7.83062240861337e-01 -5.89450388147962e-01
1.38000000000000e+02 -9.49983117362544e-01  6.66736945870167e-01 -5.85761805708180e-01
1.41000000000000e+02 -9.82680124901229e-01  5.53223660804207e-01 -5.87152090940077e-01
1.44000000000000e+02 -1.01178561557919e+00  4.45353311332811e-01 -5.98734275890274e-01
1.47000000000000e+02 -1.04089110625714e+00  3.37482961861414e-01 -6.10316460840471e-01
1.50000000000000e+02 -1.06999659693510e+00  2.29612612390016e-01 -6.21898645790669e-01
1.53000000000000e+02 -1.02139651347098e+00  1.63715273816213e-01 -6.29220525131532e-01
1.56000000000000e+02 -9.72787343472740e-01  9.78228433741581e-02 -6.36541906291760e-01
1.59000000000000e+02 -9.24178173474502e-01  3.19304129321026e-02 -6.43863287451989e-01
1.62000000000000e+02 -8.17165187532706e-01  1.00000000000000e-02 -6.17028781797434e-01
1.65000000000000e+02 -6.81017510487101e-01  1.00000000000000e-02 -5.73155642696614e-01
1.68000000000000e+02 -5.44869833441494e-01  1.00000000000000e-02 -5.29282503595794e-01
1.71000000000000e+02 -4.08694301848070e-01  1.00000000000000e-02 -4.50103856660870e-01
1.74000000000000e+02 -2.72462867898893e-01  1.00000000000000e-02 -3.00069237774111e-01
1.77000000000000e+02 -1.36231433949715e-01  1.00000000000000e-02 -1.50034618887352e-01
1.80000000000000e+02 -5.38402655791970e-13  1.00000000000000e-02 -5.92970117452296e-13
