
This summary information was generated by ElastoDyn on 12-Sep-2023 at 00:17:16.


Turbine features:

            Downwind, 3-bladed rotor with rigid hub.
            The model has 15 of 24 DOFs active (enabled) at start-up.
 Disabled   Platform horizontal surge translation DOF 
 Disabled   Platform horizontal sway translation DOF 
 Disabled   Platform vertical heave translation DOF 
 Disabled   Platform roll tilt rotation DOF 
 Disabled   Platform pitch tilt rotation DOF 
 Disabled   Platform yaw rotation DOF 
 Enabled    1st tower fore-aft bending mode DOF 
 Enabled    1st tower side-to-side bending mode DOF 
 Enabled    2nd tower fore-aft bending mode DOF 
 Enabled    2nd tower side-to-side bending mode DOF 
 Disabled   Nacelle yaw DOF 
 Disabled   Rotor-furl DOF 
 Enabled    Variable speed generator DOF 
 Enabled    Drivetrain rotational-flexibility DOF 
 Disabled   Tail-furl DOF 
 Enabled    1st flapwise bending-mode DOF of blade 1 
 Enabled    1st edgewise bending-mode DOF of blade 1 
 Enabled    2nd flapwise bending-mode DOF of blade 1 
 Enabled    1st flapwise bending-mode DOF of blade 2 
 Enabled    1st edgewise bending-mode DOF of blade 2 
 Enabled    2nd flapwise bending-mode DOF of blade 2 
 Enabled    1st flapwise bending-mode DOF of blade 3 
 Enabled    1st edgewise bending-mode DOF of blade 3 
 Enabled    2nd flapwise bending-mode DOF of blade 3 


Time steps:

    Structural            (s)        0.01250000


Some calculated parameters:

    Hub-Height            (m)           198.900
    Flexible Tower Length (m)           193.287
    Flexible Blade Length (m)           165.000


Rotor mass properties:

    Rotor Mass            (kg)       666168.562
    Rotor Inertia         (kg-m^2)*************
                                        Blade 1      Blade 2      Blade 3
                                        -------      -------      -------
    Mass                  (kg)       145176.703   145176.703   145176.703
    Second Mass Moment    (kg-m^2)740135808.000740135808.000740135808.000
    First Mass Moment     (kg-m)    8193650.500  8193650.500  8193650.500
    Center of Mass        (m)            56.439       56.439       56.439


Additional mass properties:

    Tower-top Mass        (kg)      1689059.000
    Tower Mass            (kg)      2044318.125
    Platform Mass         (kg)            0.000
    Mass Incl. Platform   (kg)      3733377.000


Interpolated tower properties:

Node  TwFract   HNodes  DHNodes  TMassDen    FAStiff    SSStiff
 (-)      (-)      (m)      (m)    (kg/m)     (Nm^2)     (Nm^2)
   1    0.025    4.832    9.664 14200.012  8.138E+12  8.031E+12
   2    0.075   14.497    9.664 13960.036  7.731E+12  7.628E+12
   3    0.125   24.161    9.664 13715.050  7.333E+12  7.236E+12
   4    0.175   33.825    9.664 13465.050  6.944E+12  6.853E+12
   5    0.225   43.490    9.664 12970.186  6.455E+12  6.369E+12
   6    0.275   53.154    9.664 12230.259  5.864E+12  5.786E+12
   7    0.325   62.818    9.664 11747.534  5.414E+12  5.342E+12
   8    0.375   72.483    9.664 11522.421  5.105E+12  5.038E+12
   9    0.425   82.147    9.664 11069.592  4.720E+12  4.658E+12
  10    0.475   91.811    9.664 10389.592  4.259E+12  4.203E+12
  11    0.525  101.476    9.664  9945.635  3.909E+12  3.857E+12
  12    0.575  111.140    9.664  9737.156  3.668E+12  3.620E+12
  13    0.625  120.804    9.664  9528.917  3.437E+12  3.392E+12
  14    0.675  130.469    9.664  9320.917  3.216E+12  3.174E+12
  15    0.725  140.133    9.664  8913.537  2.945E+12  2.906E+12
  16    0.775  149.797    9.664  8307.098  2.624E+12  2.589E+12
  17    0.825  159.462    9.664  7909.712  2.380E+12  2.348E+12
  18    0.875  169.126    9.664  7721.212  2.213E+12  2.184E+12
  19    0.925  178.791    9.664  7532.971  2.055E+12  2.028E+12
  20    0.975  188.455    9.664  7344.990  1.905E+12  1.879E+12


Interpolated blade 1 properties:

Node  BlFract   RNodes  DRNodes PitchAxis  StrcTwst  BMassDen    FlpStff    EdgStff
 (-)      (-)      (m)      (m)       (-)     (deg)    (kg/m)     (Nm^2)     (Nm^2)
   1    0.010    8.400    3.300     0.500    -1.044  2162.086  1.638E+11  1.514E+11
   2    0.030   11.700    3.300     0.500     2.478  2222.341  1.956E+11  1.560E+11
   3    0.050   15.000    3.300     0.489     6.000  2093.307  2.096E+11  1.516E+11
   4    0.070   18.300    3.300     0.474     9.522  1908.118  2.159E+11  1.443E+11
   5    0.090   21.600    3.300     0.454    13.044  1695.966  1.732E+11  1.311E+11
   6    0.110   24.900    3.300     0.432    16.566  1554.432  1.372E+11  1.223E+11
   7    0.130   28.200    3.300     0.409    20.087  1557.850  1.151E+11  1.225E+11
   8    0.150   31.500    3.300     0.390    21.159  1468.265  1.035E+11  1.136E+11
   9    0.170   34.800    3.300     0.372    20.621  1317.562  9.866E+10  9.860E+10
  10    0.190   38.100    3.300     0.350    18.160  1277.315  9.387E+10  9.549E+10
  11    0.210   41.400    3.300     0.328    15.436  1256.115  8.965E+10  9.443E+10
  12    0.230   44.700    3.300     0.313    12.711  1256.070  8.858E+10  9.561E+10
  13    0.250   48.000    3.300     0.304    10.553  1219.086  8.402E+10  9.141E+10
  14    0.270   51.300    3.300     0.303     9.143  1133.343  7.485E+10  8.011E+10
  15    0.290   54.600    3.300     0.303     8.043  1071.802  6.479E+10  6.952E+10
  16    0.310   57.900    3.300     0.303     7.070  1020.296  5.435E+10  5.922E+10
  17    0.330   61.200    3.300     0.303     6.098   975.769  4.543E+10  5.063E+10
  18    0.350   64.500    3.300     0.303     5.236   928.628  3.757E+10  4.276E+10
  19    0.370   67.800    3.300     0.303     4.692   873.643  3.268E+10  3.685E+10
  20    0.390   71.100    3.300     0.303     4.187   832.415  2.840E+10  3.180E+10
  21    0.410   74.400    3.300     0.303     3.718   803.168  2.466E+10  2.750E+10
  22    0.430   77.700    3.300     0.303     3.249   777.131  2.115E+10  2.354E+10
  23    0.450   81.000    3.300     0.303     2.793   752.205  1.780E+10  1.977E+10
  24    0.470   84.300    3.300     0.303     2.473   731.092  1.547E+10  1.724E+10
  25    0.490   87.600    3.300     0.303     2.155   710.382  1.330E+10  1.488E+10
  26    0.510   90.900    3.300     0.303     1.843   690.381  1.143E+10  1.284E+10
  27    0.530   94.200    3.300     0.303     1.537   670.906  9.800E+09  1.105E+10
  28    0.550   97.500    3.300     0.303     1.233   651.729  8.311E+09  9.399E+09
  29    0.570  100.800    3.300     0.303     1.072   631.744  7.211E+09  8.211E+09
  30    0.590  104.100    3.300     0.303     0.925   613.460  6.181E+09  7.321E+09
  31    0.610  107.400    3.300     0.303     0.778   602.768  5.296E+09  7.510E+09
  32    0.630  110.700    3.300     0.303     0.634   597.395  4.539E+09  7.954E+09
  33    0.650  114.000    3.300     0.303     0.495   598.130  3.927E+09  8.692E+09
  34    0.670  117.300    3.300     0.303     0.387   599.559  3.466E+09  9.298E+09
  35    0.690  120.600    3.300     0.303     0.290   601.181  3.059E+09  9.855E+09
  36    0.710  123.900    3.300     0.303     0.193   599.998  2.737E+09  1.018E+10
  37    0.730  127.200    3.300     0.303     0.100   597.597  2.432E+09  1.046E+10
  38    0.750  130.500    3.300     0.303     0.014   592.258  2.172E+09  1.061E+10
  39    0.770  133.800    3.300     0.303    -0.054   585.867  1.936E+09  1.066E+10
  40    0.790  137.100    3.300     0.303    -0.109   578.677  1.719E+09  1.064E+10
  41    0.810  140.400    3.300     0.303    -0.163   545.640  1.505E+09  9.744E+09
  42    0.830  143.700    3.300     0.303    -0.215   506.563  1.292E+09  8.652E+09
  43    0.850  147.000    3.300     0.303    -0.253   458.083  1.077E+09  7.307E+09
  44    0.870  150.300    3.300     0.303    -0.279   407.035  8.622E+08  5.950E+09
  45    0.890  153.600    3.300     0.303    -0.288   352.080  6.473E+08  4.571E+09
  46    0.910  156.900    3.300     0.303    -0.296   290.802  4.754E+08  3.385E+09
  47    0.930  160.200    3.300     0.303    -0.304   226.445  3.245E+08  2.291E+09
  48    0.950  163.500    3.300     0.303    -0.312   177.257  2.201E+08  1.613E+09
  49    0.970  166.800    3.300     0.303    -0.320   130.377  1.252E+08  1.004E+09
  50    0.990  170.100    3.300     0.303    -0.329    88.620  5.461E+07  5.543E+08


Interpolated blade 2 properties:

Node  BlFract   RNodes  DRNodes PitchAxis  StrcTwst  BMassDen    FlpStff    EdgStff
 (-)      (-)      (m)      (m)       (-)     (deg)    (kg/m)     (Nm^2)     (Nm^2)
   1    0.010    8.400    3.300     0.500    -1.044  2162.086  1.638E+11  1.514E+11
   2    0.030   11.700    3.300     0.500     2.478  2222.341  1.956E+11  1.560E+11
   3    0.050   15.000    3.300     0.489     6.000  2093.307  2.096E+11  1.516E+11
   4    0.070   18.300    3.300     0.474     9.522  1908.118  2.159E+11  1.443E+11
   5    0.090   21.600    3.300     0.454    13.044  1695.966  1.732E+11  1.311E+11
   6    0.110   24.900    3.300     0.432    16.566  1554.432  1.372E+11  1.223E+11
   7    0.130   28.200    3.300     0.409    20.087  1557.850  1.151E+11  1.225E+11
   8    0.150   31.500    3.300     0.390    21.159  1468.265  1.035E+11  1.136E+11
   9    0.170   34.800    3.300     0.372    20.621  1317.562  9.866E+10  9.860E+10
  10    0.190   38.100    3.300     0.350    18.160  1277.315  9.387E+10  9.549E+10
  11    0.210   41.400    3.300     0.328    15.436  1256.115  8.965E+10  9.443E+10
  12    0.230   44.700    3.300     0.313    12.711  1256.070  8.858E+10  9.561E+10
  13    0.250   48.000    3.300     0.304    10.553  1219.086  8.402E+10  9.141E+10
  14    0.270   51.300    3.300     0.303     9.143  1133.343  7.485E+10  8.011E+10
  15    0.290   54.600    3.300     0.303     8.043  1071.802  6.479E+10  6.952E+10
  16    0.310   57.900    3.300     0.303     7.070  1020.296  5.435E+10  5.922E+10
  17    0.330   61.200    3.300     0.303     6.098   975.769  4.543E+10  5.063E+10
  18    0.350   64.500    3.300     0.303     5.236   928.628  3.757E+10  4.276E+10
  19    0.370   67.800    3.300     0.303     4.692   873.643  3.268E+10  3.685E+10
  20    0.390   71.100    3.300     0.303     4.187   832.415  2.840E+10  3.180E+10
  21    0.410   74.400    3.300     0.303     3.718   803.168  2.466E+10  2.750E+10
  22    0.430   77.700    3.300     0.303     3.249   777.131  2.115E+10  2.354E+10
  23    0.450   81.000    3.300     0.303     2.793   752.205  1.780E+10  1.977E+10
  24    0.470   84.300    3.300     0.303     2.473   731.092  1.547E+10  1.724E+10
  25    0.490   87.600    3.300     0.303     2.155   710.382  1.330E+10  1.488E+10
  26    0.510   90.900    3.300     0.303     1.843   690.381  1.143E+10  1.284E+10
  27    0.530   94.200    3.300     0.303     1.537   670.906  9.800E+09  1.105E+10
  28    0.550   97.500    3.300     0.303     1.233   651.729  8.311E+09  9.399E+09
  29    0.570  100.800    3.300     0.303     1.072   631.744  7.211E+09  8.211E+09
  30    0.590  104.100    3.300     0.303     0.925   613.460  6.181E+09  7.321E+09
  31    0.610  107.400    3.300     0.303     0.778   602.768  5.296E+09  7.510E+09
  32    0.630  110.700    3.300     0.303     0.634   597.395  4.539E+09  7.954E+09
  33    0.650  114.000    3.300     0.303     0.495   598.130  3.927E+09  8.692E+09
  34    0.670  117.300    3.300     0.303     0.387   599.559  3.466E+09  9.298E+09
  35    0.690  120.600    3.300     0.303     0.290   601.181  3.059E+09  9.855E+09
  36    0.710  123.900    3.300     0.303     0.193   599.998  2.737E+09  1.018E+10
  37    0.730  127.200    3.300     0.303     0.100   597.597  2.432E+09  1.046E+10
  38    0.750  130.500    3.300     0.303     0.014   592.258  2.172E+09  1.061E+10
  39    0.770  133.800    3.300     0.303    -0.054   585.867  1.936E+09  1.066E+10
  40    0.790  137.100    3.300     0.303    -0.109   578.677  1.719E+09  1.064E+10
  41    0.810  140.400    3.300     0.303    -0.163   545.640  1.505E+09  9.744E+09
  42    0.830  143.700    3.300     0.303    -0.215   506.563  1.292E+09  8.652E+09
  43    0.850  147.000    3.300     0.303    -0.253   458.083  1.077E+09  7.307E+09
  44    0.870  150.300    3.300     0.303    -0.279   407.035  8.622E+08  5.950E+09
  45    0.890  153.600    3.300     0.303    -0.288   352.080  6.473E+08  4.571E+09
  46    0.910  156.900    3.300     0.303    -0.296   290.802  4.754E+08  3.385E+09
  47    0.930  160.200    3.300     0.303    -0.304   226.445  3.245E+08  2.291E+09
  48    0.950  163.500    3.300     0.303    -0.312   177.257  2.201E+08  1.613E+09
  49    0.970  166.800    3.300     0.303    -0.320   130.377  1.252E+08  1.004E+09
  50    0.990  170.100    3.300     0.303    -0.329    88.620  5.461E+07  5.543E+08


Interpolated blade 3 properties:

Node  BlFract   RNodes  DRNodes PitchAxis  StrcTwst  BMassDen    FlpStff    EdgStff
 (-)      (-)      (m)      (m)       (-)     (deg)    (kg/m)     (Nm^2)     (Nm^2)
   1    0.010    8.400    3.300     0.500    -1.044  2162.086  1.638E+11  1.514E+11
   2    0.030   11.700    3.300     0.500     2.478  2222.341  1.956E+11  1.560E+11
   3    0.050   15.000    3.300     0.489     6.000  2093.307  2.096E+11  1.516E+11
   4    0.070   18.300    3.300     0.474     9.522  1908.118  2.159E+11  1.443E+11
   5    0.090   21.600    3.300     0.454    13.044  1695.966  1.732E+11  1.311E+11
   6    0.110   24.900    3.300     0.432    16.566  1554.432  1.372E+11  1.223E+11
   7    0.130   28.200    3.300     0.409    20.087  1557.850  1.151E+11  1.225E+11
   8    0.150   31.500    3.300     0.390    21.159  1468.265  1.035E+11  1.136E+11
   9    0.170   34.800    3.300     0.372    20.621  1317.562  9.866E+10  9.860E+10
  10    0.190   38.100    3.300     0.350    18.160  1277.315  9.387E+10  9.549E+10
  11    0.210   41.400    3.300     0.328    15.436  1256.115  8.965E+10  9.443E+10
  12    0.230   44.700    3.300     0.313    12.711  1256.070  8.858E+10  9.561E+10
  13    0.250   48.000    3.300     0.304    10.553  1219.086  8.402E+10  9.141E+10
  14    0.270   51.300    3.300     0.303     9.143  1133.343  7.485E+10  8.011E+10
  15    0.290   54.600    3.300     0.303     8.043  1071.802  6.479E+10  6.952E+10
  16    0.310   57.900    3.300     0.303     7.070  1020.296  5.435E+10  5.922E+10
  17    0.330   61.200    3.300     0.303     6.098   975.769  4.543E+10  5.063E+10
  18    0.350   64.500    3.300     0.303     5.236   928.628  3.757E+10  4.276E+10
  19    0.370   67.800    3.300     0.303     4.692   873.643  3.268E+10  3.685E+10
  20    0.390   71.100    3.300     0.303     4.187   832.415  2.840E+10  3.180E+10
  21    0.410   74.400    3.300     0.303     3.718   803.168  2.466E+10  2.750E+10
  22    0.430   77.700    3.300     0.303     3.249   777.131  2.115E+10  2.354E+10
  23    0.450   81.000    3.300     0.303     2.793   752.205  1.780E+10  1.977E+10
  24    0.470   84.300    3.300     0.303     2.473   731.092  1.547E+10  1.724E+10
  25    0.490   87.600    3.300     0.303     2.155   710.382  1.330E+10  1.488E+10
  26    0.510   90.900    3.300     0.303     1.843   690.381  1.143E+10  1.284E+10
  27    0.530   94.200    3.300     0.303     1.537   670.906  9.800E+09  1.105E+10
  28    0.550   97.500    3.300     0.303     1.233   651.729  8.311E+09  9.399E+09
  29    0.570  100.800    3.300     0.303     1.072   631.744  7.211E+09  8.211E+09
  30    0.590  104.100    3.300     0.303     0.925   613.460  6.181E+09  7.321E+09
  31    0.610  107.400    3.300     0.303     0.778   602.768  5.296E+09  7.510E+09
  32    0.630  110.700    3.300     0.303     0.634   597.395  4.539E+09  7.954E+09
  33    0.650  114.000    3.300     0.303     0.495   598.130  3.927E+09  8.692E+09
  34    0.670  117.300    3.300     0.303     0.387   599.559  3.466E+09  9.298E+09
  35    0.690  120.600    3.300     0.303     0.290   601.181  3.059E+09  9.855E+09
  36    0.710  123.900    3.300     0.303     0.193   599.998  2.737E+09  1.018E+10
  37    0.730  127.200    3.300     0.303     0.100   597.597  2.432E+09  1.046E+10
  38    0.750  130.500    3.300     0.303     0.014   592.258  2.172E+09  1.061E+10
  39    0.770  133.800    3.300     0.303    -0.054   585.867  1.936E+09  1.066E+10
  40    0.790  137.100    3.300     0.303    -0.109   578.677  1.719E+09  1.064E+10
  41    0.810  140.400    3.300     0.303    -0.163   545.640  1.505E+09  9.744E+09
  42    0.830  143.700    3.300     0.303    -0.215   506.563  1.292E+09  8.652E+09
  43    0.850  147.000    3.300     0.303    -0.253   458.083  1.077E+09  7.307E+09
  44    0.870  150.300    3.300     0.303    -0.279   407.035  8.622E+08  5.950E+09
  45    0.890  153.600    3.300     0.303    -0.288   352.080  6.473E+08  4.571E+09
  46    0.910  156.900    3.300     0.303    -0.296   290.802  4.754E+08  3.385E+09
  47    0.930  160.200    3.300     0.303    -0.304   226.445  3.245E+08  2.291E+09
  48    0.950  163.500    3.300     0.303    -0.312   177.257  2.201E+08  1.613E+09
  49    0.970  166.800    3.300     0.303    -0.320   130.377  1.252E+08  1.004E+09
  50    0.990  170.100    3.300     0.303    -0.329    88.620  5.461E+07  5.543E+08


Requested Outputs:


 Col   Parameter            Units               
 ---   ---------------      ---------------     
   0   Time                 (s)                 
   1   OoPDefl1             (m)                 
   2   OoPDefl2             (m)                 
   3   OoPDefl3             (m)                 
   4   TipALxb1             (m/s^2)             
   5   TipALxb2             (m/s^2)             
   6   TipALxb3             (m/s^2)             
   7   IPDefl1              (m)                 
   8   IPDefl2              (m)                 
   9   IPDefl3              (m)                 
  10   TwstDefl1            (deg)               
  11   TwstDefl2            (deg)               
  12   TwstDefl3            (deg)               
  13   TipDxb1              (m)                 
  14   TipDxb2              (m)                 
  15   TipDxb3              (m)                 
  16   BldPitch1            (deg)               
  17   BldPitch2            (deg)               
  18   BldPitch3            (deg)               
  19   Azimuth              (deg)               
  20   TwrClrnc1            (m)                 
  21   TwrClrnc2            (m)                 
  22   TwrClrnc3            (m)                 
  23   RotSpeed             (rpm)               
  24   GenSpeed             (rpm)               
  25   TTDspFA              (m)                 
  26   TTDspSS              (m)                 
  27   TTDspTwst            (deg)               
  28   RootFxc1             (kN)                
  29   RootFyc1             (kN)                
  30   RootFzc1             (kN)                
  31   RootMxc1             (kN-m)              
  32   RootMyc1             (kN-m)              
  33   RootMzc1             (kN-m)              
  34   RootMxb1             (kN-m)              
  35   RootMyb1             (kN-m)              
  36   RootFxc2             (kN)                
  37   RootFyc2             (kN)                
  38   RootFzc2             (kN)                
  39   RootMxc2             (kN-m)              
  40   RootMyc2             (kN-m)              
  41   RootMzc2             (kN-m)              
  42   RootMxb2             (kN-m)              
  43   RootMyb2             (kN-m)              
  44   RootFxc3             (kN)                
  45   RootFyc3             (kN)                
  46   RootFzc3             (kN)                
  47   RootMxc3             (kN-m)              
  48   RootMyc3             (kN-m)              
  49   RootMzc3             (kN-m)              
  50   RootMxb3             (kN-m)              
  51   RootMyb3             (kN-m)              
  52   RotTorq              (kN-m)              
  53   RotThrust            (kN)                
  54   LSSGagMya            (kN-m)              
  55   LSSGagMza            (kN-m)              
  56   LSShftMxa            (kN-m)              
  57   YawBrFxp             (kN)                
  58   YawBrFyp             (kN)                
  59   YawBrFzp             (kN)                
  60   YawBrMxp             (kN-m)              
  61   YawBrMyp             (kN-m)              
  62   YawBrMzp             (kN-m)              
  63   TwrBsFxt             (kN)                
  64   TwrBsFyt             (kN)                
  65   TwrBsFzt             (kN)                
  66   TwrBsMxt             (kN-m)              
  67   TwrBsMyt             (kN-m)              
  68   TwrBsMzt             (kN-m)              
  69   RotPwr               (kW)                


  Requested Output Channels at each blade station:
 Col   Parameter            Units               
 ---   ---------------      ---------------     
